<?xml version="1.0" encoding="UTF-8"?>

<!-- generated on 2023-07-09 18:20:55 by Eclipse SUMO netedit Version 1.16.0
<configuration xmlns:xsi="http://www.w3.org/2001/XMLSchema-instance" xsi:noNamespaceSchemaLocation="http://sumo.dlr.de/xsd/netconvertConfiguration.xsd">

    <input>
        <sumo-net-file value="C:\Users\MSI\Videos\map_nttd.net.xml"/>
    </input>

    <processing>
        <geometry.min-radius.fix.railways value="false"/>
        <geometry.max-grade.fix value="false"/>
        <offset.disable-normalization value="true"/>
        <lefthand value="0"/>
    </processing>

    <junctions>
        <no-turnarounds value="true"/>
        <junctions.corner-detail value="5"/>
        <junctions.limit-turn-speed value="5.50"/>
        <rectangular-lane-cut value="0"/>
    </junctions>

    <pedestrian>
        <walkingareas value="0"/>
    </pedestrian>

</configuration>
-->

<additional xmlns:xsi="http://www.w3.org/2001/XMLSchema-instance" xsi:noNamespaceSchemaLocation="http://sumo.dlr.de/xsd/additional_file.xsd">
    <tlLogic id="10" type="static" programID="jam" offset="0">
        <phase duration="60" state="rrrrrrrgggggggggrrrgggggggggggrrgggggggggggrrggg"/>
        <phase duration="3" state="rrrrrrrgggggyyyyrrrgggyyyyggggrrgggggggggggrrggg"/>
        <phase duration="6" state="rrrrrrrgggggrrrrrrrgggrrrrggggrrgggggggggggrrggg"/>
        <phase duration="30" state="rrrrrrggggggrrrrrrggggrrrrggggrggggggggggggrgggg"/>
        <phase duration="3" state="rrrrrrygggggrrrrrrygggrrrrggggrygggggggggggryggg"/>
        <phase duration="3" state="rrrrrrrgggggrrrrrrrgggrrrrggggrrgggggggggggrrggg"/>
        <phase duration="30" state="ggggggrgggggrrrrggggggrrrrgggggggggggggggggrgggg"/>
        <phase duration="3" state="yyyyyyrgggggrrrrgrrgggrrrrggggyygggggggggggryggg"/>
    </tlLogic>
        <tlLogic id="10" type="static" programID="non-jam" offset="0">
        <phase duration="60" state="rrrrrrrgggggggggrrrgggggggggggrrgggggggggggrrggg"/>
        <phase duration="3" state="rrrrrrrgggggyyyyrrrgggyyyyggggrrgggggggggggrrggg"/>
        <phase duration="6" state="rrrrrrrgggggrrrrrrrgggrrrrggggrrgggggggggggrrggg"/>
        <phase duration="30" state="rrrrrrggggggrrrrrrggggrrrrggggrggggggggggggrgggg"/>
        <phase duration="3" state="rrrrrrygggggrrrrrrygggrrrrggggrygggggggggggryggg"/>
        <phase duration="3" state="rrrrrrrgggggrrrrrrrgggrrrrggggrrgggggggggggrrggg"/>
        <phase duration="30" state="ggggggrgggggrrrrggggggrrrrgggggggggggggggggrgggg"/>
        <phase duration="3" state="yyyyyyrgggggrrrrgrrgggrrrrggggyygggggggggggryggg"/>
    </tlLogic>
</additional>
