<?xml version="1.0" encoding="UTF-8"?>

<!-- generated on 2023-05-06 22:27:56 by Eclipse SUMO netedit Version 1.16.0
<configuration xmlns:xsi="http://www.w3.org/2001/XMLSchema-instance" xsi:noNamespaceSchemaLocation="http://sumo.dlr.de/xsd/netconvertConfiguration.xsd">

    <input>
        <sumo-net-file value="D:\OMNetpp\omnetpp-5.6.2\samples\veins_testsims\sim\veins_testsims\traci\net.net.xml"/>
    </input>

    <output>
        <output-file value="D:\OMNetpp\omnetpp-5.6.2\samples\veins_testsims\sim\veins_testsims\traci\net.net.xml"/>
        <output.street-names value="true"/>
    </output>

    <processing>
        <geometry.min-radius.fix.railways value="false"/>
        <geometry.max-grade.fix value="false"/>
        <offset.disable-normalization value="true"/>
        <lefthand value="0"/>
    </processing>

    <junctions>
        <no-turnarounds value="true"/>
        <junctions.corner-detail value="0"/>
        <junctions.limit-turn-speed value="-1.00"/>
        <rectangular-lane-cut value="0"/>
    </junctions>

    <pedestrian>
        <walkingareas value="0"/>
    </pedestrian>

</configuration>
-->

<net version="1.16" xmlns:xsi="http://www.w3.org/2001/XMLSchema-instance" xsi:noNamespaceSchemaLocation="http://sumo.dlr.de/xsd/net_file.xsd">

    <location netOffset="0.00,1.65" convBoundary="-4.38,-61.55,1103.40,188.75" origBoundary="0.00,-1.65,1100.00,100.00" projParameter="!"/>

    <edge id=":10_0" function="internal">
        <lane id=":10_0_0" index="0" speed="21.72" length="11.20" shape="298.35,55.60 298.35,44.40"/>
    </edge>
    <edge id=":10_1" function="internal">
        <lane id=":10_1_0" index="0" speed="24.75" length="2.73" shape="298.35,55.60 298.91,53.15 299.06,52.99"/>
    </edge>
    <edge id=":10_2" function="internal">
        <lane id=":10_2_0" index="0" speed="21.72" length="1.49" shape="298.35,55.60 299.17,54.36"/>
    </edge>
    <edge id=":10_9" function="internal">
        <lane id=":10_9_0" index="0" speed="24.75" length="9.08" shape="299.06,52.99 300.58,51.40 303.36,50.35 307.25,50.00"/>
    </edge>
    <edge id=":10_10" function="internal">
        <lane id=":10_10_0" index="0" speed="21.72" length="3.33" shape="299.17,54.36 300.00,53.95 300.82,54.36 301.65,55.60"/>
    </edge>
    <edge id=":10_3" function="internal">
        <lane id=":10_3_0" index="0" speed="24.75" length="9.03" shape="301.65,44.40 302.00,46.85 303.05,48.60 304.80,49.65 307.25,50.00"/>
    </edge>
    <edge id=":10_4" function="internal">
        <lane id=":10_4_0" index="0" speed="21.72" length="11.20" shape="301.65,44.40 301.65,55.60"/>
    </edge>
    <edge id=":10_5" function="internal">
        <lane id=":10_5_0" index="0" speed="21.72" length="1.49" shape="301.65,44.40 300.83,45.64"/>
    </edge>
    <edge id=":10_11" function="internal">
        <lane id=":10_11_0" index="0" speed="21.72" length="3.33" shape="300.83,45.64 300.00,46.05 299.18,45.64 298.35,44.40"/>
    </edge>
    <edge id=":10_6" function="internal">
        <lane id=":10_6_0" index="0" speed="24.75" length="9.03" shape="292.75,50.00 295.20,49.65 296.95,48.60 298.00,46.85 298.35,44.40"/>
    </edge>
    <edge id=":10_7" function="internal">
        <lane id=":10_7_0" index="0" speed="27.78" length="14.50" shape="292.75,50.00 307.25,50.00"/>
    </edge>
    <edge id=":10_8" function="internal">
        <lane id=":10_8_0" index="0" speed="24.75" length="11.81" shape="292.75,50.00 296.64,50.35 299.42,51.40 301.09,53.15 301.65,55.60"/>
    </edge>
    <edge id=":11_0" function="internal">
        <lane id=":11_0_0" index="0" speed="21.97" length="9.03" shape="301.65,94.40 302.00,96.85 303.05,98.60 304.80,99.65 307.25,100.00"/>
    </edge>
    <edge id=":11_1" function="internal">
        <lane id=":11_1_0" index="0" speed="21.72" length="4.82" shape="301.65,94.40 300.83,95.64 300.00,96.05 299.18,95.64 298.35,94.40"/>
    </edge>
    <edge id=":11_2" function="internal">
        <lane id=":11_2_0" index="0" speed="21.97" length="9.03" shape="292.75,100.00 295.20,99.65 296.95,98.60 298.00,96.85 298.35,94.40"/>
    </edge>
    <edge id=":11_3" function="internal">
        <lane id=":11_3_0" index="0" speed="22.22" length="14.50" shape="292.75,100.00 307.25,100.00"/>
    </edge>
    <edge id=":12_0" function="internal">
        <lane id=":12_0_0" index="0" speed="17.80" length="21.58" shape="398.35,5.60 398.38,-15.98"/>
    </edge>
    <edge id=":12_1" function="internal">
        <lane id=":12_1_0" index="0" speed="21.97" length="11.81" shape="398.35,5.60 398.91,3.15 400.58,1.40 403.36,0.35 407.25,0.00"/>
    </edge>
    <edge id=":12_2" function="internal">
        <lane id=":12_2_0" index="0" speed="21.72" length="4.82" shape="398.35,5.60 399.17,4.36 400.00,3.95 400.82,4.36 401.65,5.60"/>
    </edge>
    <edge id=":12_3" function="internal">
        <lane id=":12_3_0" index="0" speed="18.05" length="18.24" shape="392.75,0.00 395.22,-1.00 396.98,-3.99 398.03,-8.99 398.38,-15.98"/>
    </edge>
    <edge id=":12_4" function="internal">
        <lane id=":12_4_0" index="0" speed="22.22" length="14.50" shape="392.75,0.00 407.25,0.00"/>
    </edge>
    <edge id=":12_5" function="internal">
        <lane id=":12_5_0" index="0" speed="21.97" length="11.81" shape="392.75,0.00 396.64,0.35 399.42,1.40 401.09,3.15 401.65,5.60"/>
    </edge>
    <edge id=":13_0" function="internal">
        <lane id=":13_0_0" index="0" speed="21.72" length="11.20" shape="398.35,55.60 398.35,44.40"/>
    </edge>
    <edge id=":13_1" function="internal">
        <lane id=":13_1_0" index="0" speed="24.75" length="2.73" shape="398.35,55.60 398.91,53.15 399.06,52.99"/>
    </edge>
    <edge id=":13_2" function="internal">
        <lane id=":13_2_0" index="0" speed="21.72" length="1.49" shape="398.35,55.60 399.17,54.36"/>
    </edge>
    <edge id=":13_9" function="internal">
        <lane id=":13_9_0" index="0" speed="24.75" length="9.08" shape="399.06,52.99 400.58,51.40 403.36,50.35 407.25,50.00"/>
    </edge>
    <edge id=":13_10" function="internal">
        <lane id=":13_10_0" index="0" speed="21.72" length="3.33" shape="399.17,54.36 400.00,53.95 400.82,54.36 401.65,55.60"/>
    </edge>
    <edge id=":13_3" function="internal">
        <lane id=":13_3_0" index="0" speed="24.75" length="9.03" shape="401.65,44.40 402.00,46.85 403.05,48.60 404.80,49.65 407.25,50.00"/>
    </edge>
    <edge id=":13_4" function="internal">
        <lane id=":13_4_0" index="0" speed="21.72" length="11.20" shape="401.65,44.40 401.65,55.60"/>
    </edge>
    <edge id=":13_5" function="internal">
        <lane id=":13_5_0" index="0" speed="21.72" length="1.49" shape="401.65,44.40 400.83,45.64"/>
    </edge>
    <edge id=":13_11" function="internal">
        <lane id=":13_11_0" index="0" speed="21.72" length="3.33" shape="400.83,45.64 400.00,46.05 399.18,45.64 398.35,44.40"/>
    </edge>
    <edge id=":13_6" function="internal">
        <lane id=":13_6_0" index="0" speed="24.75" length="9.03" shape="392.75,50.00 395.20,49.65 396.95,48.60 398.00,46.85 398.35,44.40"/>
    </edge>
    <edge id=":13_7" function="internal">
        <lane id=":13_7_0" index="0" speed="27.78" length="14.50" shape="392.75,50.00 407.25,50.00"/>
    </edge>
    <edge id=":13_8" function="internal">
        <lane id=":13_8_0" index="0" speed="24.75" length="11.81" shape="392.75,50.00 396.64,50.35 399.42,51.40 401.09,53.15 401.65,55.60"/>
    </edge>
    <edge id=":14_0" function="internal">
        <lane id=":14_0_0" index="0" speed="21.97" length="9.03" shape="401.65,94.40 402.00,96.85 403.05,98.60 404.80,99.65 407.25,100.00"/>
    </edge>
    <edge id=":14_1" function="internal">
        <lane id=":14_1_0" index="0" speed="21.72" length="4.82" shape="401.65,94.40 400.83,95.64 400.00,96.05 399.18,95.64 398.35,94.40"/>
    </edge>
    <edge id=":14_2" function="internal">
        <lane id=":14_2_0" index="0" speed="21.97" length="9.03" shape="392.75,100.00 395.20,99.65 396.95,98.60 398.00,96.85 398.35,94.40"/>
    </edge>
    <edge id=":14_3" function="internal">
        <lane id=":14_3_0" index="0" speed="22.22" length="14.50" shape="392.75,100.00 407.25,100.00"/>
    </edge>
    <edge id=":15_0" function="internal">
        <lane id=":15_0_0" index="0" speed="17.80" length="19.82" shape="498.35,5.60 498.39,-14.22"/>
    </edge>
    <edge id=":15_1" function="internal">
        <lane id=":15_1_0" index="0" speed="21.97" length="11.81" shape="498.35,5.60 498.91,3.15 500.58,1.40 503.36,0.35 507.25,0.00"/>
    </edge>
    <edge id=":15_2" function="internal">
        <lane id=":15_2_0" index="0" speed="21.72" length="4.82" shape="498.35,5.60 499.18,4.36 500.00,3.95 500.82,4.36 501.65,5.60"/>
    </edge>
    <edge id=":15_3" function="internal">
        <lane id=":15_3_0" index="0" speed="18.05" length="16.62" shape="492.75,0.00 495.22,-0.89 496.98,-3.55 498.04,-8.00 498.39,-14.22"/>
    </edge>
    <edge id=":15_4" function="internal">
        <lane id=":15_4_0" index="0" speed="22.22" length="14.50" shape="492.75,0.00 507.25,0.00"/>
    </edge>
    <edge id=":15_5" function="internal">
        <lane id=":15_5_0" index="0" speed="21.97" length="11.81" shape="492.75,0.00 496.64,0.35 499.42,1.40 501.09,3.15 501.65,5.60"/>
    </edge>
    <edge id=":16_0" function="internal">
        <lane id=":16_0_0" index="0" speed="21.72" length="11.20" shape="498.35,55.60 498.35,44.40"/>
    </edge>
    <edge id=":16_1" function="internal">
        <lane id=":16_1_0" index="0" speed="24.75" length="2.73" shape="498.35,55.60 498.91,53.15 499.06,52.99"/>
    </edge>
    <edge id=":16_2" function="internal">
        <lane id=":16_2_0" index="0" speed="21.72" length="1.49" shape="498.35,55.60 499.18,54.36"/>
    </edge>
    <edge id=":16_9" function="internal">
        <lane id=":16_9_0" index="0" speed="24.75" length="9.08" shape="499.06,52.99 500.58,51.40 503.36,50.35 507.25,50.00"/>
    </edge>
    <edge id=":16_10" function="internal">
        <lane id=":16_10_0" index="0" speed="21.72" length="3.33" shape="499.18,54.36 500.00,53.95 500.82,54.36 501.65,55.60"/>
    </edge>
    <edge id=":16_3" function="internal">
        <lane id=":16_3_0" index="0" speed="24.75" length="9.03" shape="501.65,44.40 502.00,46.85 503.05,48.60 504.80,49.65 507.25,50.00"/>
    </edge>
    <edge id=":16_4" function="internal">
        <lane id=":16_4_0" index="0" speed="21.72" length="11.20" shape="501.65,44.40 501.65,55.60"/>
    </edge>
    <edge id=":16_5" function="internal">
        <lane id=":16_5_0" index="0" speed="21.72" length="1.49" shape="501.65,44.40 500.82,45.64"/>
    </edge>
    <edge id=":16_11" function="internal">
        <lane id=":16_11_0" index="0" speed="21.72" length="3.33" shape="500.82,45.64 500.00,46.05 499.18,45.64 498.35,44.40"/>
    </edge>
    <edge id=":16_6" function="internal">
        <lane id=":16_6_0" index="0" speed="24.75" length="9.03" shape="492.75,50.00 495.20,49.65 496.95,48.60 498.00,46.85 498.35,44.40"/>
    </edge>
    <edge id=":16_7" function="internal">
        <lane id=":16_7_0" index="0" speed="27.78" length="14.50" shape="492.75,50.00 507.25,50.00"/>
    </edge>
    <edge id=":16_8" function="internal">
        <lane id=":16_8_0" index="0" speed="24.75" length="11.81" shape="492.75,50.00 496.64,50.35 499.42,51.40 501.09,53.15 501.65,55.60"/>
    </edge>
    <edge id=":17_0" function="internal">
        <lane id=":17_0_0" index="0" speed="21.97" length="9.03" shape="501.65,94.40 502.00,96.85 503.05,98.60 504.80,99.65 507.25,100.00"/>
    </edge>
    <edge id=":17_1" function="internal">
        <lane id=":17_1_0" index="0" speed="21.72" length="4.82" shape="501.65,94.40 500.82,95.64 500.00,96.05 499.18,95.64 498.35,94.40"/>
    </edge>
    <edge id=":17_2" function="internal">
        <lane id=":17_2_0" index="0" speed="21.97" length="9.03" shape="492.75,100.00 495.20,99.65 496.95,98.60 498.00,96.85 498.35,94.40"/>
    </edge>
    <edge id=":17_3" function="internal">
        <lane id=":17_3_0" index="0" speed="22.22" length="14.50" shape="492.75,100.00 507.25,100.00"/>
    </edge>
    <edge id=":18_0" function="internal">
        <lane id=":18_0_0" index="0" speed="17.80" length="17.80" shape="598.35,5.60 598.41,-12.20"/>
    </edge>
    <edge id=":18_1" function="internal">
        <lane id=":18_1_0" index="0" speed="21.97" length="11.81" shape="598.35,5.60 598.91,3.15 600.57,1.40 603.35,0.35 607.25,0.00"/>
    </edge>
    <edge id=":18_2" function="internal">
        <lane id=":18_2_0" index="0" speed="21.72" length="4.82" shape="598.35,5.60 599.18,4.36 600.00,3.95 600.83,4.36 601.65,5.60"/>
    </edge>
    <edge id=":18_3" function="internal">
        <lane id=":18_3_0" index="0" speed="18.05" length="14.78" shape="592.75,0.00 595.22,-0.76 596.99,-3.05 598.05,-6.86 598.41,-12.20"/>
    </edge>
    <edge id=":18_4" function="internal">
        <lane id=":18_4_0" index="0" speed="22.22" length="14.49" shape="592.75,0.00 607.25,0.00"/>
    </edge>
    <edge id=":18_5" function="internal">
        <lane id=":18_5_0" index="0" speed="21.97" length="11.81" shape="592.75,0.00 596.65,0.35 599.43,1.40 601.09,3.15 601.65,5.60"/>
    </edge>
    <edge id=":19_0" function="internal">
        <lane id=":19_0_0" index="0" speed="21.72" length="11.20" shape="598.35,55.60 598.35,44.40"/>
    </edge>
    <edge id=":19_1" function="internal">
        <lane id=":19_1_0" index="0" speed="24.75" length="2.73" shape="598.35,55.60 598.91,53.15 599.06,52.99"/>
    </edge>
    <edge id=":19_2" function="internal">
        <lane id=":19_2_0" index="0" speed="21.72" length="1.49" shape="598.35,55.60 599.18,54.36"/>
    </edge>
    <edge id=":19_9" function="internal">
        <lane id=":19_9_0" index="0" speed="24.75" length="9.08" shape="599.06,52.99 600.58,51.40 603.36,50.35 607.25,50.00"/>
    </edge>
    <edge id=":19_10" function="internal">
        <lane id=":19_10_0" index="0" speed="21.72" length="3.33" shape="599.18,54.36 600.00,53.95 600.83,54.36 601.65,55.60"/>
    </edge>
    <edge id=":19_3" function="internal">
        <lane id=":19_3_0" index="0" speed="24.75" length="9.03" shape="601.65,44.40 602.00,46.85 603.05,48.60 604.80,49.65 607.25,50.00"/>
    </edge>
    <edge id=":19_4" function="internal">
        <lane id=":19_4_0" index="0" speed="21.72" length="11.20" shape="601.65,44.40 601.65,55.60"/>
    </edge>
    <edge id=":19_5" function="internal">
        <lane id=":19_5_0" index="0" speed="21.72" length="1.49" shape="601.65,44.40 600.82,45.64"/>
    </edge>
    <edge id=":19_11" function="internal">
        <lane id=":19_11_0" index="0" speed="21.72" length="3.33" shape="600.82,45.64 600.00,46.05 599.17,45.64 598.35,44.40"/>
    </edge>
    <edge id=":19_6" function="internal">
        <lane id=":19_6_0" index="0" speed="24.75" length="9.03" shape="592.75,50.00 595.20,49.65 596.95,48.60 598.00,46.85 598.35,44.40"/>
    </edge>
    <edge id=":19_7" function="internal">
        <lane id=":19_7_0" index="0" speed="27.78" length="14.50" shape="592.75,50.00 607.25,50.00"/>
    </edge>
    <edge id=":19_8" function="internal">
        <lane id=":19_8_0" index="0" speed="24.75" length="11.81" shape="592.75,50.00 596.64,50.35 599.42,51.40 601.09,53.15 601.65,55.60"/>
    </edge>
    <edge id=":20_0" function="internal">
        <lane id=":20_0_0" index="0" speed="21.97" length="9.03" shape="601.65,94.40 602.00,96.85 603.05,98.60 604.80,99.65 607.25,100.00"/>
    </edge>
    <edge id=":20_1" function="internal">
        <lane id=":20_1_0" index="0" speed="21.72" length="4.82" shape="601.65,94.40 600.82,95.64 600.00,96.05 599.17,95.64 598.35,94.40"/>
    </edge>
    <edge id=":20_2" function="internal">
        <lane id=":20_2_0" index="0" speed="21.97" length="9.03" shape="592.75,100.00 595.20,99.65 596.95,98.60 598.00,96.85 598.35,94.40"/>
    </edge>
    <edge id=":20_3" function="internal">
        <lane id=":20_3_0" index="0" speed="22.22" length="14.50" shape="592.75,100.00 607.25,100.00"/>
    </edge>
    <edge id=":21_0" function="internal">
        <lane id=":21_0_0" index="0" speed="17.80" length="15.70" shape="698.35,5.60 698.41,-10.10"/>
    </edge>
    <edge id=":21_1" function="internal">
        <lane id=":21_1_0" index="0" speed="21.97" length="11.81" shape="698.35,5.60 698.91,3.15 700.57,1.40 703.35,0.35 707.25,0.00"/>
    </edge>
    <edge id=":21_2" function="internal">
        <lane id=":21_2_0" index="0" speed="21.72" length="4.82" shape="698.35,5.60 699.18,4.36 700.00,3.95 700.83,4.36 701.65,5.60"/>
    </edge>
    <edge id=":21_3" function="internal">
        <lane id=":21_3_0" index="0" speed="18.05" length="12.90" shape="692.75,0.00 695.22,-0.63 696.99,-2.53 698.05,-5.68 698.41,-10.10"/>
    </edge>
    <edge id=":21_4" function="internal">
        <lane id=":21_4_0" index="0" speed="22.22" length="14.49" shape="692.75,0.00 707.25,0.00"/>
    </edge>
    <edge id=":21_5" function="internal">
        <lane id=":21_5_0" index="0" speed="21.97" length="11.81" shape="692.75,0.00 696.65,0.35 699.43,1.40 701.09,3.15 701.65,5.60"/>
    </edge>
    <edge id=":22_0" function="internal">
        <lane id=":22_0_0" index="0" speed="21.72" length="11.20" shape="698.35,55.60 698.35,44.40"/>
    </edge>
    <edge id=":22_1" function="internal">
        <lane id=":22_1_0" index="0" speed="24.75" length="2.73" shape="698.35,55.60 698.91,53.15 699.06,52.99"/>
    </edge>
    <edge id=":22_2" function="internal">
        <lane id=":22_2_0" index="0" speed="21.72" length="1.49" shape="698.35,55.60 699.18,54.36"/>
    </edge>
    <edge id=":22_9" function="internal">
        <lane id=":22_9_0" index="0" speed="24.75" length="9.08" shape="699.06,52.99 700.58,51.40 703.36,50.35 707.25,50.00"/>
    </edge>
    <edge id=":22_10" function="internal">
        <lane id=":22_10_0" index="0" speed="21.72" length="3.33" shape="699.18,54.36 700.00,53.95 700.83,54.36 701.65,55.60"/>
    </edge>
    <edge id=":22_3" function="internal">
        <lane id=":22_3_0" index="0" speed="24.75" length="9.03" shape="701.65,44.40 702.00,46.85 703.05,48.60 704.80,49.65 707.25,50.00"/>
    </edge>
    <edge id=":22_4" function="internal">
        <lane id=":22_4_0" index="0" speed="21.72" length="11.20" shape="701.65,44.40 701.65,55.60"/>
    </edge>
    <edge id=":22_5" function="internal">
        <lane id=":22_5_0" index="0" speed="21.72" length="1.49" shape="701.65,44.40 700.82,45.64"/>
    </edge>
    <edge id=":22_11" function="internal">
        <lane id=":22_11_0" index="0" speed="21.72" length="3.33" shape="700.82,45.64 700.00,46.05 699.17,45.64 698.35,44.40"/>
    </edge>
    <edge id=":22_6" function="internal">
        <lane id=":22_6_0" index="0" speed="24.75" length="9.03" shape="692.75,50.00 695.20,49.65 696.95,48.60 698.00,46.85 698.35,44.40"/>
    </edge>
    <edge id=":22_7" function="internal">
        <lane id=":22_7_0" index="0" speed="27.78" length="14.50" shape="692.75,50.00 707.25,50.00"/>
    </edge>
    <edge id=":22_8" function="internal">
        <lane id=":22_8_0" index="0" speed="24.75" length="11.81" shape="692.75,50.00 696.64,50.35 699.43,51.40 701.09,53.15 701.65,55.60"/>
    </edge>
    <edge id=":23_0" function="internal">
        <lane id=":23_0_0" index="0" speed="21.97" length="9.03" shape="701.65,94.40 702.00,96.85 703.05,98.60 704.80,99.65 707.25,100.00"/>
    </edge>
    <edge id=":23_1" function="internal">
        <lane id=":23_1_0" index="0" speed="21.72" length="4.82" shape="701.65,94.40 700.82,95.64 700.00,96.05 699.17,95.64 698.35,94.40"/>
    </edge>
    <edge id=":23_2" function="internal">
        <lane id=":23_2_0" index="0" speed="21.97" length="9.03" shape="692.75,100.00 695.20,99.65 696.95,98.60 698.00,96.85 698.35,94.40"/>
    </edge>
    <edge id=":23_3" function="internal">
        <lane id=":23_3_0" index="0" speed="22.22" length="14.50" shape="692.75,100.00 707.25,100.00"/>
    </edge>
    <edge id=":24_0" function="internal">
        <lane id=":24_0_0" index="0" speed="17.80" length="18.75" shape="798.35,5.60 798.38,-13.15"/>
    </edge>
    <edge id=":24_1" function="internal">
        <lane id=":24_1_0" index="0" speed="21.97" length="11.81" shape="798.35,5.60 798.91,3.15 800.58,1.40 803.36,0.35 807.25,0.00"/>
    </edge>
    <edge id=":24_2" function="internal">
        <lane id=":24_2_0" index="0" speed="21.72" length="4.82" shape="798.35,5.60 799.18,4.36 800.00,3.95 800.83,4.36 801.65,5.60"/>
    </edge>
    <edge id=":24_3" function="internal">
        <lane id=":24_3_0" index="0" speed="18.05" length="15.64" shape="792.75,0.00 795.22,-0.82 796.98,-3.29 798.03,-7.40 798.38,-13.15"/>
    </edge>
    <edge id=":24_4" function="internal">
        <lane id=":24_4_0" index="0" speed="22.22" length="14.50" shape="792.75,0.00 807.25,0.00"/>
    </edge>
    <edge id=":24_5" function="internal">
        <lane id=":24_5_0" index="0" speed="21.97" length="11.81" shape="792.75,0.00 796.64,0.35 799.43,1.40 801.09,3.15 801.65,5.60"/>
    </edge>
    <edge id=":25_0" function="internal">
        <lane id=":25_0_0" index="0" speed="21.72" length="11.20" shape="798.35,55.60 798.35,44.40"/>
    </edge>
    <edge id=":25_1" function="internal">
        <lane id=":25_1_0" index="0" speed="24.75" length="2.73" shape="798.35,55.60 798.91,53.15 799.06,52.99"/>
    </edge>
    <edge id=":25_2" function="internal">
        <lane id=":25_2_0" index="0" speed="21.72" length="1.49" shape="798.35,55.60 799.18,54.36"/>
    </edge>
    <edge id=":25_9" function="internal">
        <lane id=":25_9_0" index="0" speed="24.75" length="9.08" shape="799.06,52.99 800.58,51.40 803.36,50.35 807.25,50.00"/>
    </edge>
    <edge id=":25_10" function="internal">
        <lane id=":25_10_0" index="0" speed="21.72" length="3.33" shape="799.18,54.36 800.00,53.95 800.83,54.36 801.65,55.60"/>
    </edge>
    <edge id=":25_3" function="internal">
        <lane id=":25_3_0" index="0" speed="24.75" length="9.03" shape="801.65,44.40 802.00,46.85 803.05,48.60 804.80,49.65 807.25,50.00"/>
    </edge>
    <edge id=":25_4" function="internal">
        <lane id=":25_4_0" index="0" speed="21.72" length="11.20" shape="801.65,44.40 801.65,55.60"/>
    </edge>
    <edge id=":25_5" function="internal">
        <lane id=":25_5_0" index="0" speed="21.72" length="1.49" shape="801.65,44.40 800.82,45.64"/>
    </edge>
    <edge id=":25_11" function="internal">
        <lane id=":25_11_0" index="0" speed="21.72" length="3.33" shape="800.82,45.64 800.00,46.05 799.17,45.64 798.35,44.40"/>
    </edge>
    <edge id=":25_6" function="internal">
        <lane id=":25_6_0" index="0" speed="24.75" length="9.03" shape="792.75,50.00 795.20,49.65 796.95,48.60 798.00,46.85 798.35,44.40"/>
    </edge>
    <edge id=":25_7" function="internal">
        <lane id=":25_7_0" index="0" speed="27.78" length="14.50" shape="792.75,50.00 807.25,50.00"/>
    </edge>
    <edge id=":25_8" function="internal">
        <lane id=":25_8_0" index="0" speed="24.75" length="11.81" shape="792.75,50.00 796.64,50.35 799.43,51.40 801.09,53.15 801.65,55.60"/>
    </edge>
    <edge id=":26_0" function="internal">
        <lane id=":26_0_0" index="0" speed="21.97" length="9.03" shape="801.65,94.40 802.00,96.85 803.05,98.60 804.80,99.65 807.25,100.00"/>
    </edge>
    <edge id=":26_1" function="internal">
        <lane id=":26_1_0" index="0" speed="21.72" length="4.82" shape="801.65,94.40 800.82,95.64 800.00,96.05 799.17,95.64 798.35,94.40"/>
    </edge>
    <edge id=":26_2" function="internal">
        <lane id=":26_2_0" index="0" speed="21.97" length="9.03" shape="792.75,100.00 795.20,99.65 796.95,98.60 798.00,96.85 798.35,94.40"/>
    </edge>
    <edge id=":26_3" function="internal">
        <lane id=":26_3_0" index="0" speed="22.22" length="14.50" shape="792.75,100.00 807.25,100.00"/>
    </edge>
    <edge id=":27_0" function="internal">
        <lane id=":27_0_0" index="0" speed="17.80" length="21.37" shape="898.35,5.60 898.22,-15.77"/>
    </edge>
    <edge id=":27_1" function="internal">
        <lane id=":27_1_0" index="0" speed="21.97" length="11.81" shape="898.35,5.60 898.91,3.15 900.58,1.40 903.36,0.35 907.25,0.00"/>
    </edge>
    <edge id=":27_2" function="internal">
        <lane id=":27_2_0" index="0" speed="21.72" length="4.82" shape="898.35,5.60 899.18,4.36 900.00,3.95 900.83,4.36 901.65,5.60"/>
    </edge>
    <edge id=":27_3" function="internal">
        <lane id=":27_3_0" index="0" speed="18.05" length="18.01" shape="892.75,0.00 895.21,-0.99 896.94,-3.94 897.94,-8.87 898.22,-15.77"/>
    </edge>
    <edge id=":27_4" function="internal">
        <lane id=":27_4_0" index="0" speed="22.22" length="14.50" shape="892.75,0.00 907.25,0.00"/>
    </edge>
    <edge id=":27_5" function="internal">
        <lane id=":27_5_0" index="0" speed="21.97" length="11.81" shape="892.75,0.00 896.64,0.35 899.43,1.40 901.09,3.15 901.65,5.60"/>
    </edge>
    <edge id=":28_0" function="internal">
        <lane id=":28_0_0" index="0" speed="21.72" length="11.20" shape="898.35,55.60 898.35,44.40"/>
    </edge>
    <edge id=":28_1" function="internal">
        <lane id=":28_1_0" index="0" speed="24.75" length="2.73" shape="898.35,55.60 898.91,53.15 899.06,52.99"/>
    </edge>
    <edge id=":28_2" function="internal">
        <lane id=":28_2_0" index="0" speed="21.72" length="1.49" shape="898.35,55.60 899.18,54.36"/>
    </edge>
    <edge id=":28_9" function="internal">
        <lane id=":28_9_0" index="0" speed="24.75" length="9.08" shape="899.06,52.99 900.58,51.40 903.36,50.35 907.25,50.00"/>
    </edge>
    <edge id=":28_10" function="internal">
        <lane id=":28_10_0" index="0" speed="21.72" length="3.33" shape="899.18,54.36 900.00,53.95 900.83,54.36 901.65,55.60"/>
    </edge>
    <edge id=":28_3" function="internal">
        <lane id=":28_3_0" index="0" speed="24.75" length="9.03" shape="901.65,44.40 902.00,46.85 903.05,48.60 904.80,49.65 907.25,50.00"/>
    </edge>
    <edge id=":28_4" function="internal">
        <lane id=":28_4_0" index="0" speed="21.72" length="11.20" shape="901.65,44.40 901.65,55.60"/>
    </edge>
    <edge id=":28_5" function="internal">
        <lane id=":28_5_0" index="0" speed="21.72" length="1.49" shape="901.65,44.40 900.82,45.64"/>
    </edge>
    <edge id=":28_11" function="internal">
        <lane id=":28_11_0" index="0" speed="21.72" length="3.33" shape="900.82,45.64 900.00,46.05 899.17,45.64 898.35,44.40"/>
    </edge>
    <edge id=":28_6" function="internal">
        <lane id=":28_6_0" index="0" speed="24.75" length="9.03" shape="892.75,50.00 895.20,49.65 896.95,48.60 898.00,46.85 898.35,44.40"/>
    </edge>
    <edge id=":28_7" function="internal">
        <lane id=":28_7_0" index="0" speed="27.78" length="14.50" shape="892.75,50.00 907.25,50.00"/>
    </edge>
    <edge id=":28_8" function="internal">
        <lane id=":28_8_0" index="0" speed="24.75" length="11.81" shape="892.75,50.00 896.64,50.35 899.43,51.40 901.09,53.15 901.65,55.60"/>
    </edge>
    <edge id=":29_0" function="internal">
        <lane id=":29_0_0" index="0" speed="21.97" length="9.03" shape="901.65,94.40 902.00,96.85 903.05,98.60 904.80,99.65 907.25,100.00"/>
    </edge>
    <edge id=":29_1" function="internal">
        <lane id=":29_1_0" index="0" speed="21.72" length="4.82" shape="901.65,94.40 900.82,95.64 900.00,96.05 899.17,95.64 898.35,94.40"/>
    </edge>
    <edge id=":29_2" function="internal">
        <lane id=":29_2_0" index="0" speed="21.97" length="9.03" shape="892.75,100.00 895.20,99.65 896.95,98.60 898.00,96.85 898.35,94.40"/>
    </edge>
    <edge id=":29_3" function="internal">
        <lane id=":29_3_0" index="0" speed="22.22" length="14.50" shape="892.75,100.00 907.25,100.00"/>
    </edge>
    <edge id=":3_0" function="internal">
        <lane id=":3_0_0" index="0" speed="17.80" length="15.45" shape="98.35,5.63 98.44,-9.82"/>
    </edge>
    <edge id=":3_1" function="internal">
        <lane id=":3_1_0" index="0" speed="21.97" length="0.88" shape="98.35,5.63 98.54,4.77"/>
    </edge>
    <edge id=":3_2" function="internal">
        <lane id=":3_2_0" index="0" speed="21.72" length="0.96" shape="98.35,5.63 98.88,4.83"/>
    </edge>
    <edge id=":3_6" function="internal">
        <lane id=":3_6_0" index="0" speed="21.97" length="10.92" shape="98.54,4.77 98.90,3.17 100.56,1.41 103.33,0.35 107.21,0.00"/>
    </edge>
    <edge id=":3_7" function="internal">
        <lane id=":3_7_0" index="0" speed="21.72" length="3.86" shape="98.88,4.83 99.18,4.39 100.00,3.98 100.83,4.39 101.65,5.63"/>
    </edge>
    <edge id=":3_3" function="internal">
        <lane id=":3_3_0" index="0" speed="13.89" length="24.05" shape="79.14,0.19 87.57,-0.48 93.60,-2.38 97.22,-5.49 98.44,-9.82"/>
    </edge>
    <edge id=":3_4" function="internal">
        <lane id=":3_4_0" index="0" speed="18.05" length="28.07" shape="79.14,0.19 107.21,0.00"/>
    </edge>
    <edge id=":3_5" function="internal">
        <lane id=":3_5_0" index="0" speed="17.80" length="24.33" shape="79.14,0.19 88.99,0.47 96.02,1.47 100.24,3.19 101.65,5.63"/>
    </edge>
    <edge id=":30_0" function="internal">
        <lane id=":30_0_0" index="0" speed="17.80" length="16.48" shape="998.35,5.60 998.43,-10.87"/>
    </edge>
    <edge id=":30_1" function="internal">
        <lane id=":30_1_0" index="0" speed="17.80" length="15.60" shape="998.35,5.60 999.17,3.17 1001.63,1.41 1005.74,0.33 1011.48,-0.09"/>
    </edge>
    <edge id=":30_2" function="internal">
        <lane id=":30_2_0" index="0" speed="21.72" length="4.82" shape="998.35,5.60 999.17,4.36 1000.00,3.95 1000.83,4.36 1001.65,5.60"/>
    </edge>