<?xml version="1.0" encoding="UTF-8"?>

<!-- generated on 2023-04-14 21:33:32 by Eclipse SUMO netedit Version 1.16.0
<configuration xmlns:xsi="http://www.w3.org/2001/XMLSchema-instance" xsi:noNamespaceSchemaLocation="http://sumo.dlr.de/xsd/netconvertConfiguration.xsd">

    <input>
        <sumo-net-file value="/home/mike/Documents/dsrc_cv2x/omnetpp-6.0/samples/test/simulations/traci/net.net.xml"/>
    </input>

    <output>
        <output-file value="/home/mike/Documents/dsrc_cv2x/omnetpp-6.0/samples/test/simulations/traci/net.net.xml"/>
        <output.street-names value="true"/>
    </output>

    <processing>
        <geometry.min-radius.fix.railways value="false"/>
        <geometry.max-grade.fix value="false"/>
        <offset.disable-normalization value="true"/>
        <lefthand value="0"/>
    </processing>

    <junctions>
        <no-turnarounds value="true"/>
        <junctions.corner-detail value="0"/>
        <junctions.limit-turn-speed value="-1.00"/>
        <rectangular-lane-cut value="0"/>
    </junctions>

    <pedestrian>
        <walkingareas value="0"/>
    </pedestrian>

</configuration>
-->

<net version="1.16" xmlns:xsi="http://www.w3.org/2001/XMLSchema-instance" xsi:noNamespaceSchemaLocation="http://sumo.dlr.de/xsd/net_file.xsd">

    <location netOffset="0.00,1.65" convBoundary="0.00,0.00,1100.00,101.65" origBoundary="0.00,-1.65,1100.00,100.00" projParameter="!"/>

    <edge id=":10_0" function="internal">
        <lane id=":10_0_0" index="0" speed="21.72" length="11.20" shape="298.35,55.60 298.35,44.40"/>
    </edge>
    <edge id=":10_1" function="internal">
        <lane id=":10_1_0" index="0" speed="24.75" length="2.73" shape="298.35,55.60 298.91,53.15 299.06,52.99"/>
    </edge>
    <edge id=":10_2" function="internal">
        <lane id=":10_2_0" index="0" speed="21.72" length="1.49" shape="298.35,55.60 299.17,54.36"/>
    </edge>
    <edge id=":10_9" function="internal">
        <lane id=":10_9_0" index="0" speed="24.75" length="9.08" shape="299.06,52.99 300.58,51.40 303.36,50.35 307.25,50.00"/>
    </edge>
    <edge id=":10_10" function="internal">
        <lane id=":10_10_0" index="0" speed="21.72" length="3.33" shape="299.17,54.36 300.00,53.95 300.82,54.36 301.65,55.60"/>
    </edge>
    <edge id=":10_3" function="internal">
        <lane id=":10_3_0" index="0" speed="24.75" length="9.03" shape="301.65,44.40 302.00,46.85 303.05,48.60 304.80,49.65 307.25,50.00"/>
    </edge>
    <edge id=":10_4" function="internal">
        <lane id=":10_4_0" index="0" speed="21.72" length="11.20" shape="301.65,44.40 301.65,55.60"/>
    </edge>
    <edge id=":10_5" function="internal">
        <lane id=":10_5_0" index="0" speed="21.72" length="1.49" shape="301.65,44.40 300.83,45.64"/>
    </edge>
    <edge id=":10_11" function="internal">
        <lane id=":10_11_0" index="0" speed="21.72" length="3.33" shape="300.83,45.64 300.00,46.05 299.18,45.64 298.35,44.40"/>
    </edge>
    <edge id=":10_6" function="internal">
        <lane id=":10_6_0" index="0" speed="24.75" length="9.03" shape="292.75,50.00 295.20,49.65 296.95,48.60 298.00,46.85 298.35,44.40"/>
    </edge>
    <edge id=":10_7" function="internal">
        <lane id=":10_7_0" index="0" speed="27.78" length="14.50" shape="292.75,50.00 307.25,50.00"/>
    </edge>
    <edge id=":10_8" function="internal">
        <lane id=":10_8_0" index="0" speed="24.75" length="11.81" shape="292.75,50.00 296.64,50.35 299.42,51.40 301.09,53.15 301.65,55.60"/>
    </edge>
    <edge id=":11_0" function="internal">
        <lane id=":11_0_0" index="0" speed="21.97" length="9.03" shape="301.65,94.40 302.00,96.85 303.05,98.60 304.80,99.65 307.25,100.00"/>
    </edge>
    <edge id=":11_1" function="internal">
        <lane id=":11_1_0" index="0" speed="21.72" length="4.82" shape="301.65,94.40 300.83,95.64 300.00,96.05 299.18,95.64 298.35,94.40"/>
    </edge>
    <edge id=":11_2" function="internal">
        <lane id=":11_2_0" index="0" speed="21.97" length="9.03" shape="292.75,100.00 295.20,99.65 296.95,98.60 298.00,96.85 298.35,94.40"/>
    </edge>
    <edge id=":11_3" function="internal">
        <lane id=":11_3_0" index="0" speed="22.22" length="14.50" shape="292.75,100.00 307.25,100.00"/>
    </edge>
    <edge id=":12_0" function="internal">
        <lane id=":12_0_0" index="0" speed="21.97" length="7.85" shape="398.35,3.10 398.75,1.74 399.95,0.77 401.95,0.19 404.75,0.00"/>
    </edge>
    <edge id=":12_1" function="internal">
        <lane id=":12_1_0" index="0" speed="21.72" length="4.82" shape="398.35,3.10 399.17,1.86 400.00,1.45 400.82,1.86 401.65,3.10"/>
    </edge>
    <edge id=":12_2" function="internal">
        <lane id=":12_2_0" index="0" speed="22.22" length="9.50" shape="395.25,0.00 404.75,0.00"/>
    </edge>
    <edge id=":12_3" function="internal">
        <lane id=":12_3_0" index="0" speed="21.97" length="7.85" shape="395.25,0.00 398.05,0.19 400.05,0.78 401.25,1.74 401.65,3.10"/>
    </edge>
    <edge id=":13_0" function="internal">
        <lane id=":13_0_0" index="0" speed="21.72" length="11.20" shape="398.35,55.60 398.35,44.40"/>
    </edge>
    <edge id=":13_1" function="internal">
        <lane id=":13_1_0" index="0" speed="24.75" length="11.81" shape="398.35,55.60 398.91,53.15 400.58,51.40 403.36,50.35 407.25,50.00"/>
    </edge>
    <edge id=":13_2" function="internal">
        <lane id=":13_2_0" index="0" speed="21.72" length="4.82" shape="398.35,55.60 399.17,54.36 400.00,53.95 400.82,54.36 401.65,55.60"/>
    </edge>
    <edge id=":13_3" function="internal">
        <lane id=":13_3_0" index="0" speed="24.75" length="9.03" shape="401.65,44.40 402.00,46.85 403.05,48.60 404.80,49.65 407.25,50.00"/>
    </edge>
    <edge id=":13_4" function="internal">
        <lane id=":13_4_0" index="0" speed="21.72" length="11.20" shape="401.65,44.40 401.65,55.60"/>
    </edge>
    <edge id=":13_5" function="internal">
        <lane id=":13_5_0" index="0" speed="21.72" length="4.82" shape="401.65,44.40 400.83,45.64 400.00,46.05 399.18,45.64 398.35,44.40"/>
    </edge>
    <edge id=":13_6" function="internal">
        <lane id=":13_6_0" index="0" speed="24.75" length="9.03" shape="392.75,50.00 395.20,49.65 396.95,48.60 398.00,46.85 398.35,44.40"/>
    </edge>
    <edge id=":13_7" function="internal">
        <lane id=":13_7_0" index="0" speed="27.78" length="14.50" shape="392.75,50.00 407.25,50.00"/>
    </edge>
    <edge id=":13_8" function="internal">
        <lane id=":13_8_0" index="0" speed="24.75" length="11.81" shape="392.75,50.00 396.64,50.35 399.42,51.40 401.09,53.15 401.65,55.60"/>
    </edge>
    <edge id=":14_0" function="internal">
        <lane id=":14_0_0" index="0" speed="21.97" length="9.03" shape="401.65,94.40 402.00,96.85 403.05,98.60 404.80,99.65 407.25,100.00"/>
    </edge>
    <edge id=":14_1" function="internal">
        <lane id=":14_1_0" index="0" speed="21.72" length="4.82" shape="401.65,94.40 400.83,95.64 400.00,96.05 399.18,95.64 398.35,94.40"/>
    </edge>
    <edge id=":14_2" function="internal">
        <lane id=":14_2_0" index="0" speed="21.97" length="9.03" shape="392.75,100.00 395.20,99.65 396.95,98.60 398.00,96.85 398.35,94.40"/>
    </edge>
    <edge id=":14_3" function="internal">
        <lane id=":14_3_0" index="0" speed="22.22" length="14.50" shape="392.75,100.00 407.25,100.00"/>
    </edge>
    <edge id=":15_0" function="internal">
        <lane id=":15_0_0" index="0" speed="21.97" length="7.85" shape="498.35,3.10 498.75,1.74 499.95,0.77 501.95,0.19 504.75,0.00"/>
    </edge>
    <edge id=":15_1" function="internal">
        <lane id=":15_1_0" index="0" speed="21.72" length="4.82" shape="498.35,3.10 499.18,1.86 500.00,1.45 500.82,1.86 501.65,3.10"/>
    </edge>
    <edge id=":15_2" function="internal">
        <lane id=":15_2_0" index="0" speed="22.22" length="9.50" shape="495.25,0.00 504.75,0.00"/>
    </edge>
    <edge id=":15_3" function="internal">
        <lane id=":15_3_0" index="0" speed="21.97" length="7.85" shape="495.25,0.00 498.05,0.19 500.05,0.78 501.25,1.74 501.65,3.10"/>
    </edge>
    <edge id=":16_0" function="internal">
        <lane id=":16_0_0" index="0" speed="21.72" length="11.20" shape="498.35,55.60 498.35,44.40"/>
    </edge>
    <edge id=":16_1" function="internal">
        <lane id=":16_1_0" index="0" speed="24.75" length="11.81" shape="498.35,55.60 498.91,53.15 500.58,51.40 503.36,50.35 507.25,50.00"/>
    </edge>
    <edge id=":16_2" function="internal">
        <lane id=":16_2_0" index="0" speed="21.72" length="4.82" shape="498.35,55.60 499.18,54.36 500.00,53.95 500.82,54.36 501.65,55.60"/>
    </edge>
    <edge id=":16_3" function="internal">
        <lane id=":16_3_0" index="0" speed="24.75" length="9.03" shape="501.65,44.40 502.00,46.85 503.05,48.60 504.80,49.65 507.25,50.00"/>
    </edge>
    <edge id=":16_4" function="internal">
        <lane id=":16_4_0" index="0" speed="21.72" length="11.20" shape="501.65,44.40 501.65,55.60"/>
    </edge>
    <edge id=":16_5" function="internal">
        <lane id=":16_5_0" index="0" speed="21.72" length="4.82" shape="501.65,44.40 500.82,45.64 500.00,46.05 499.18,45.64 498.35,44.40"/>
    </edge>
    <edge id=":16_6" function="internal">
        <lane id=":16_6_0" index="0" speed="24.75" length="9.03" shape="492.75,50.00 495.20,49.65 496.95,48.60 498.00,46.85 498.35,44.40"/>
    </edge>
    <edge id=":16_7" function="internal">
        <lane id=":16_7_0" index="0" speed="27.78" length="14.50" shape="492.75,50.00 507.25,50.00"/>
    </edge>
    <edge id=":16_8" function="internal">
        <lane id=":16_8_0" index="0" speed="24.75" length="11.81" shape="492.75,50.00 496.64,50.35 499.42,51.40 501.09,53.15 501.65,55.60"/>
    </edge>
    <edge id=":17_0" function="internal">
        <lane id=":17_0_0" index="0" speed="21.97" length="9.03" shape="501.65,94.40 502.00,96.85 503.05,98.60 504.80,99.65 507.25,100.00"/>
    </edge>
    <edge id=":17_1" function="internal">
        <lane id=":17_1_0" index="0" speed="21.72" length="4.82" shape="501.65,94.40 500.82,95.64 500.00,96.05 499.18,95.64 498.35,94.40"/>
    </edge>
    <edge id=":17_2" function="internal">
        <lane id=":17_2_0" index="0" speed="21.97" length="9.03" shape="492.75,100.00 495.20,99.65 496.95,98.60 498.00,96.85 498.35,94.40"/>
    </edge>
    <edge id=":17_3" function="internal">
        <lane id=":17_3_0" index="0" speed="22.22" length="14.50" shape="492.75,100.00 507.25,100.00"/>
    </edge>
    <edge id=":18_0" function="internal">
        <lane id=":18_0_0" index="0" speed="21.97" length="7.85" shape="598.35,3.10 598.75,1.74 599.95,0.77 601.95,0.19 604.75,0.00"/>
    </edge>
    <edge id=":18_1" function="internal">
        <lane id=":18_1_0" index="0" speed="21.72" length="4.82" shape="598.35,3.10 599.18,1.86 600.00,1.45 600.83,1.86 601.65,3.10"/>
    </edge>
    <edge id=":18_2" function="internal">
        <lane id=":18_2_0" index="0" speed="22.22" length="9.50" shape="595.25,0.00 604.75,0.00"/>
    </edge>
    <edge id=":18_3" function="internal">
        <lane id=":18_3_0" index="0" speed="21.97" length="7.85" shape="595.25,0.00 598.05,0.19 600.05,0.78 601.25,1.74 601.65,3.10"/>
    </edge>
    <edge id=":19_0" function="internal">
        <lane id=":19_0_0" index="0" speed="21.72" length="11.20" shape="598.35,55.60 598.35,44.40"/>
    </edge>
    <edge id=":19_1" function="internal">
        <lane id=":19_1_0" index="0" speed="24.75" length="11.81" shape="598.35,55.60 598.91,53.15 600.58,51.40 603.36,50.35 607.25,50.00"/>
    </edge>
    <edge id=":19_2" function="internal">
        <lane id=":19_2_0" index="0" speed="21.72" length="4.82" shape="598.35,55.60 599.18,54.36 600.00,53.95 600.83,54.36 601.65,55.60"/>
    </edge>
    <edge id=":19_3" function="internal">
        <lane id=":19_3_0" index="0" speed="24.75" length="9.03" shape="601.65,44.40 602.00,46.85 603.05,48.60 604.80,49.65 607.25,50.00"/>
    </edge>
    <edge id=":19_4" function="internal">
        <lane id=":19_4_0" index="0" speed="21.72" length="11.20" shape="601.65,44.40 601.65,55.60"/>
    </edge>
    <edge id=":19_5" function="internal">
        <lane id=":19_5_0" index="0" speed="21.72" length="4.82" shape="601.65,44.40 600.82,45.64 600.00,46.05 599.17,45.64 598.35,44.40"/>
    </edge>
    <edge id=":19_6" function="internal">
        <lane id=":19_6_0" index="0" speed="24.75" length="9.03" shape="592.75,50.00 595.20,49.65 596.95,48.60 598.00,46.85 598.35,44.40"/>
    </edge>
    <edge id=":19_7" function="internal">
        <lane id=":19_7_0" index="0" speed="27.78" length="14.50" shape="592.75,50.00 607.25,50.00"/>
    </edge>
    <edge id=":19_8" function="internal">
        <lane id=":19_8_0" index="0" speed="24.75" length="11.81" shape="592.75,50.00 596.64,50.35 599.42,51.40 601.09,53.15 601.65,55.60"/>
    </edge>
    <edge id=":20_0" function="internal">
        <lane id=":20_0_0" index="0" speed="21.97" length="9.03" shape="601.65,94.40 602.00,96.85 603.05,98.60 604.80,99.65 607.25,100.00"/>
    </edge>
    <edge id=":20_1" function="internal">
        <lane id=":20_1_0" index="0" speed="21.72" length="4.82" shape="601.65,94.40 600.82,95.64 600.00,96.05 599.17,95.64 598.35,94.40"/>
    </edge>
    <edge id=":20_2" function="internal">
        <lane id=":20_2_0" index="0" speed="21.97" length="9.03" shape="592.75,100.00 595.20,99.65 596.95,98.60 598.00,96.85 598.35,94.40"/>
    </edge>
    <edge id=":20_3" function="internal">
        <lane id=":20_3_0" index="0" speed="22.22" length="14.50" shape="592.75,100.00 607.25,100.00"/>
    </edge>
    <edge id=":21_0" function="internal">
        <lane id=":21_0_0" index="0" speed="21.97" length="7.85" shape="698.35,3.10 698.75,1.74 699.95,0.77 701.95,0.19 704.75,0.00"/>
    </edge>
    <edge id=":21_1" function="internal">
        <lane id=":21_1_0" index="0" speed="21.72" length="4.82" shape="698.35,3.10 699.18,1.86 700.00,1.45 700.83,1.86 701.65,3.10"/>
    </edge>
    <edge id=":21_2" function="internal">
        <lane id=":21_2_0" index="0" speed="22.22" length="9.50" shape="695.25,0.00 704.75,0.00"/>
    </edge>
    <edge id=":21_3" function="internal">
        <lane id=":21_3_0" index="0" speed="21.97" length="7.85" shape="695.25,0.00 698.05,0.19 700.05,0.78 701.25,1.74 701.65,3.10"/>
    </edge>
    <edge id=":22_0" function="internal">
        <lane id=":22_0_0" index="0" speed="21.72" length="11.20" shape="698.35,55.60 698.35,44.40"/>
    </edge>
    <edge id=":22_1" function="internal">
        <lane id=":22_1_0" index="0" speed="24.75" length="11.81" shape="698.35,55.60 698.91,53.15 700.58,51.40 703.36,50.35 707.25,50.00"/>
    </edge>
    <edge id=":22_2" function="internal">
        <lane id=":22_2_0" index="0" speed="21.72" length="4.82" shape="698.35,55.60 699.18,54.36 700.00,53.95 700.83,54.36 701.65,55.60"/>
    </edge>
    <edge id=":22_3" function="internal">
        <lane id=":22_3_0" index="0" speed="24.75" length="9.03" shape="701.65,44.40 702.00,46.85 703.05,48.60 704.80,49.65 707.25,50.00"/>
    </edge>
    <edge id=":22_4" function="internal">
        <lane id=":22_4_0" index="0" speed="21.72" length="11.20" shape="701.65,44.40 701.65,55.60"/>
    </edge>
    <edge id=":22_5" function="internal">
        <lane id=":22_5_0" index="0" speed="21.72" length="4.82" shape="701.65,44.40 700.82,45.64 700.00,46.05 699.17,45.64 698.35,44.40"/>
    </edge>
    <edge id=":22_6" function="internal">
        <lane id=":22_6_0" index="0" speed="24.75" length="9.03" shape="692.75,50.00 695.20,49.65 696.95,48.60 698.00,46.85 698.35,44.40"/>
    </edge>
    <edge id=":22_7" function="internal">
        <lane id=":22_7_0" index="0" speed="27.78" length="14.50" shape="692.75,50.00 707.25,50.00"/>
    </edge>
    <edge id=":22_8" function="internal">
        <lane id=":22_8_0" index="0" speed="24.75" length="11.81" shape="692.75,50.00 696.64,50.35 699.43,51.40 701.09,53.15 701.65,55.60"/>
    </edge>
    <edge id=":23_0" function="internal">
        <lane id=":23_0_0" index="0" speed="21.97" length="9.03" shape="701.65,94.40 702.00,96.85 703.05,98.60 704.80,99.65 707.25,100.00"/>
    </edge>
    <edge id=":23_1" function="internal">
        <lane id=":23_1_0" index="0" speed="21.72" length="4.82" shape="701.65,94.40 700.82,95.64 700.00,96.05 699.17,95.64 698.35,94.40"/>
    </edge>
    <edge id=":23_2" function="internal">
        <lane id=":23_2_0" index="0" speed="21.97" length="9.03" shape="692.75,100.00 695.20,99.65 696.95,98.60 698.00,96.85 698.35,94.40"/>
    </edge>
    <edge id=":23_3" function="internal">
        <lane id=":23_3_0" index="0" speed="22.22" length="14.50" shape="692.75,100.00 707.25,100.00"/>
    </edge>
    <edge id=":24_0" function="internal">
        <lane id=":24_0_0" index="0" speed="21.97" length="7.85" shape="798.35,3.10 798.75,1.74 799.95,0.77 801.95,0.19 804.75,0.00"/>
    </edge>
    <edge id=":24_1" function="internal">
        <lane id=":24_1_0" index="0" speed="21.72" length="4.82" shape="798.35,3.10 799.18,1.86 800.00,1.45 800.83,1.86 801.65,3.10"/>
    </edge>
    <edge id=":24_2" function="internal">
        <lane id=":24_2_0" index="0" speed="22.22" length="9.50" shape="795.25,0.00 804.75,0.00"/>
    </edge>
    <edge id=":24_3" function="internal">
        <lane id=":24_3_0" index="0" speed="21.97" length="7.85" shape="795.25,0.00 798.05,0.19 800.05,0.78 801.25,1.74 801.65,3.10"/>
    </edge>
    <edge id=":25_0" function="internal">
        <lane id=":25_0_0" index="0" speed="21.72" length="11.20" shape="798.35,55.60 798.35,44.40"/>
    </edge>
    <edge id=":25_1" function="internal">
        <lane id=":25_1_0" index="0" speed="24.75" length="11.81" shape="798.35,55.60 798.91,53.15 800.58,51.40 803.36,50.35 807.25,50.00"/>
    </edge>
    <edge id=":25_2" function="internal">
        <lane id=":25_2_0" index="0" speed="21.72" length="4.82" shape="798.35,55.60 799.18,54.36 800.00,53.95 800.83,54.36 801.65,55.60"/>
    </edge>
    <edge id=":25_3" function="internal">
        <lane id=":25_3_0" index="0" speed="24.75" length="9.03" shape="801.65,44.40 802.00,46.85 803.05,48.60 804.80,49.65 807.25,50.00"/>
    </edge>
    <edge id=":25_4" function="internal">
        <lane id=":25_4_0" index="0" speed="21.72" length="11.20" shape="801.65,44.40 801.65,55.60"/>
    </edge>
    <edge id=":25_5" function="internal">
        <lane id=":25_5_0" index="0" speed="21.72" length="4.82" shape="801.65,44.40 800.82,45.64 800.00,46.05 799.17,45.64 798.35,44.40"/>
    </edge>
    <edge id=":25_6" function="internal">
        <lane id=":25_6_0" index="0" speed="24.75" length="9.03" shape="792.75,50.00 795.20,49.65 796.95,48.60 798.00,46.85 798.35,44.40"/>
    </edge>
    <edge id=":25_7" function="internal">
        <lane id=":25_7_0" index="0" speed="27.78" length="14.50" shape="792.75,50.00 807.25,50.00"/>
    </edge>
    <edge id=":25_8" function="internal">
        <lane id=":25_8_0" index="0" speed="24.75" length="11.81" shape="792.75,50.00 796.64,50.35 799.43,51.40 801.09,53.15 801.65,55.60"/>
    </edge>
    <edge id=":26_0" function="internal">
        <lane id=":26_0_0" index="0" speed="21.97" length="9.03" shape="801.65,94.40 802.00,96.85 803.05,98.60 804.80,99.65 807.25,100.00"/>
    </edge>
    <edge id=":26_1" function="internal">
        <lane id=":26_1_0" index="0" speed="21.72" length="4.82" shape="801.65,94.40 800.82,95.64 800.00,96.05 799.17,95.64 798.35,94.40"/>
    </edge>
    <edge id=":26_2" function="internal">
        <lane id=":26_2_0" index="0" speed="21.97" length="9.03" shape="792.75,100.00 795.20,99.65 796.95,98.60 798.00,96.85 798.35,94.40"/>
    </edge>
    <edge id=":26_3" function="internal">
        <lane id=":26_3_0" index="0" speed="22.22" length="14.50" shape="792.75,100.00 807.25,100.00"/>
    </edge>
    <edge id=":27_0" function="internal">
        <lane id=":27_0_0" index="0" speed="21.97" length="7.85" shape="898.35,3.10 898.75,1.74 899.95,0.77 901.95,0.19 904.75,0.00"/>
    </edge>
    <edge id=":27_1" function="internal">
        <lane id=":27_1_0" index="0" speed="21.72" length="4.82" shape="898.35,3.10 899.18,1.86 900.00,1.45 900.83,1.86 901.65,3.10"/>
    </edge>
    <edge id=":27_2" function="internal">
        <lane id=":27_2_0" index="0" speed="22.22" length="9.50" shape="895.25,0.00 904.75,0.00"/>
    </edge>
    <edge id=":27_3" function="internal">
        <lane id=":27_3_0" index="0" speed="21.97" length="7.85" shape="895.25,0.00 898.05,0.19 900.05,0.78 901.25,1.74 901.65,3.10"/>
    </edge>
    <edge id=":28_0" function="internal">
        <lane id=":28_0_0" index="0" speed="21.72" length="11.20" shape="898.35,55.60 898.35,44.40"/>
    </edge>
    <edge id=":28_1" function="internal">
        <lane id=":28_1_0" index="0" speed="24.75" length="11.81" shape="898.35,55.60 898.91,53.15 900.58,51.40 903.36,50.35 907.25,50.00"/>
    </edge>
    <edge id=":28_2" function="internal">
        <lane id=":28_2_0" index="0" speed="21.72" length="4.82" shape="898.35,55.60 899.18,54.36 900.00,53.95 900.83,54.36 901.65,55.60"/>
    </edge>
    <edge id=":28_3" function="internal">
        <lane id=":28_3_0" index="0" speed="24.75" length="9.03" shape="901.65,44.40 902.00,46.85 903.05,48.60 904.80,49.65 907.25,50.00"/>
    </edge>
    <edge id=":28_4" function="internal">
        <lane id=":28_4_0" index="0" speed="21.72" length="11.20" shape="901.65,44.40 901.65,55.60"/>
    </edge>
    <edge id=":28_5" function="internal">
        <lane id=":28_5_0" index="0" speed="21.72" length="4.82" shape="901.65,44.40 900.82,45.64 900.00,46.05 899.17,45.64 898.35,44.40"/>
    </edge>
    <edge id=":28_6" function="internal">
        <lane id=":28_6_0" index="0" speed="24.75" length="9.03" shape="892.75,50.00 895.20,49.65 896.95,48.60 898.00,46.85 898.35,44.40"/>
    </edge>
    <edge id=":28_7" function="internal">
        <lane id=":28_7_0" index="0" speed="27.78" length="14.50" shape="892.75,50.00 907.25,50.00"/>
    </edge>
    <edge id=":28_8" function="internal">
        <lane id=":28_8_0" index="0" speed="24.75" length="11.81" shape="892.75,50.00 896.64,50.35 899.43,51.40 901.09,53.15 901.65,55.60"/>
    </edge>
    <edge id=":29_0" function="internal">
        <lane id=":29_0_0" index="0" speed="21.97" length="9.03" shape="901.65,94.40 902.00,96.85 903.05,98.60 904.80,99.65 907.25,100.00"/>
    </edge>
    <edge id=":29_1" function="internal">
        <lane id=":29_1_0" index="0" speed="21.72" length="4.82" shape="901.65,94.40 900.82,95.64 900.00,96.05 899.17,95.64 898.35,94.40"/>
    </edge>
    <edge id=":29_2" function="internal">
        <lane id=":29_2_0" index="0" speed="21.97" length="9.03" shape="892.75,100.00 895.20,99.65 896.95,98.60 898.00,96.85 898.35,94.40"/>
    </edge>
    <edge id=":29_3" function="internal">
        <lane id=":29_3_0" index="0" speed="22.22" length="14.50" shape="892.75,100.00 907.25,100.00"/>
    </edge>
    <edge id=":3_0" function="internal">
        <lane id=":3_0_0" index="0" speed="21.97" length="7.85" shape="98.35,3.10 98.75,1.74 99.95,0.77 101.95,0.19 104.75,0.00"/>
    </edge>
    <edge id=":3_1" function="internal">
        <lane id=":3_1_0" index="0" speed="21.72" length="4.82" shape="98.35,3.10 99.18,1.86 100.00,1.45 100.83,1.86 101.65,3.10"/>
    </edge>
    <edge id=":30_0" function="internal">
        <lane id=":30_0_0" index="0" speed="21.72" length="4.82" shape="998.35,3.10 999.17,1.86 1000.00,1.45 1000.83,1.86 1001.65,3.10"/>
    </edge>
    <edge id=":30_1" function="internal">
        <lane id=":30_1_0" index="0" speed="21.97" length="7.85" shape="995.25,0.00 998.05,0.19 1000.05,0.78 1001.25,1.74 1001.65,3.10"/>
    </edge>
    <edge id=":31_0" function="internal">
        <lane id=":31_0_0" index="0" speed="21.72" length="11.20" shape="998.35,55.60 998.35,44.40"/>
    </edge>
    <edge id=":31_1" function="internal">
        <lane id=":31_1_0" index="0" speed="24.75" length="11.81" shape="998.35,55.60 998.91,53.15 1000.58,51.40 1003.36,50.35 1007.25,50.00"/>
    </edge>
    <edge id=":31_2" function="internal">
        <lane id=":31_2_0" index="0" speed="21.72" length="4.82" shape="998.35,55.60 999.17,54.36 1000.00,53.95 1000.83,54.36 1001.65,55.60"/>
    </edge>
    <edge id=":31_3" function="internal">
        <lane id=":31_3_0" index="0" speed="24.75" length="9.03" shape="1001.65,44.40 1002.00,46.85 1003.05,48.60 1004.80,49.65 1007.25,50.00"/>
    </edge>
    <edge id=":31_4" function="internal">
        <lane id=":31_4_0" index="0" speed="21.72" length="11.20" shape="1001.65,44.40 1001.65,55.60"/>
    </edge>
    <edge id=":31_5" function="internal">
        <lane id=":31_5_0" index="0" speed="21.72" length="4.82" shape="1001.65,44.40 1000.83,45.64 1000.00,46.05 999.17,45.64 998.35,44.40"/>
    </edge>
    <edge id=":31_6" function="internal">
        <lane id=":31_6_0" index="0" speed="24.75" length="9.03" shape="992.75,50.00 995.20,49.65 996.95,48.60 998.00,46.85 998.35,44.40"/>
    </edge>
    <edge id=":31_7" function="internal">
        <lane id=":31_7_0" index="0" speed="27.78" length="14.50" shape="992.75,50.00 1007.25,50.00"/>
    </edge>
    <edge id=":31_8" function="internal">
        <lane id=":31_8_0" index="0" speed="24.75" length="11.81" shape="992.75,50.00 996.64,50.35 999.43,51.40 1001.09,53.15 1001.65,55.60"/>
    </edge>
    <edge id=":32_0" function="internal">
        <lane id=":32_0_0" index="0" speed="21.72" length="4.82" shape="1001.65,94.40 1000.83,95.64 1000.00,96.05 999.17,95.64 998.35,94.40"/>
    </edge>
    <edge id=":32_1" function="internal">
        <lane id=":32_1_0" index="0" speed="21.97" length="9.03" shape="992.75,100.00 995.20,99.65 996.95,98.60 998.00,96.85 998.35,94.40"/>
    </edge>
    <edge id=":4_0" function="internal">
        <lane id=":4_0_0" index="0" speed="21.72" length="11.20" shape="98.35,55.60 98.35,44.40"/>
    </edge>
    <edge id=":4_1" function="internal">
        <lane id=":4_1_0" index="0" speed="24.75" length="11.81" shape="98.35,55.60 98.91,53.15 100.57,51.40 103.36,50.35 107.25,50.00"/>
    </edge>
    <edge id=":4_2" function="internal">
        <lane id=":4_2_0" index="0" speed="21.72" length="4.82" shape="98.35,55.60 99.18,54.36 100.00,53.95 100.83,54.36 101.65,55.60"/>
    </edge>
    <edge id=":4_3" function="internal">
        <lane id=":4_3_0" index="0" speed="24.75" length="9.03" shape="101.65,44.40 102.00,46.85 103.05,48.60 104.80,49.65 107.25,50.00"/>
    </edge>
    <edge id=":4_4" function="internal">
        <lane id=":4_4_0" index="0" speed="21.72" length="11.20" shape="101.65,44.40 101.65,55.60"/>
    </edge>
    <edge id=":4_5" function="internal">
        <lane id=":4_5_0" index="0" speed="21.72" length="4.82" shape="101.65,44.40 100.82,45.64 100.00,46.05 99.17,45.64 98.35,44.40"/>
    </edge>
    <edge id=":4_6" function="internal">
        <lane id=":4_6_0" index="0" speed="24.75" length="9.03" shape="92.75,50.00 95.20,49.65 96.95,48.60 98.00,46.85 98.35,44.40"/>
    </edge>
    <edge id=":4_7" function="internal">
        <lane id=":4_7_0" index="0" speed="27.78" length="14.50" shape="92.75,50.00 107.25,50.00"/>
    </edge>
    <edge id=":4_8" function="internal">
        <lane id=":4_8_0" index="0" speed="24.75" length="11.81" shape="92.75,50.00 96.64,50.35 99.43,51.40 101.09,53.15 101.65,55.60"/>
    </edge>
    <edge id=":5_0" function="internal">
        <lane id=":5_0_0" index="0" speed="21.97" length="9.03" shape="101.65,94.40 102.00,96.85 103.05,98.60 104.80,99.65 107.25,100.00"/>
    </edge>
    <edge id=":5_1" function="internal">
        <lane id=":5_1_0" index="0" speed="21.72" length="4.82" shape="101.65,94.40 100.82,95.64 100.00,96.05 99.17,95.64 98.35,94.40"/>
    </edge>
    <edge id=":6_0" function="internal">
        <lane id=":6_0_0" index="0" speed="21.97" length="7.85" shape="198.35,3.10 198.75,1.74 199.95,0.77 201.95,0.19 204.75,0.00"/>
    </edge>
    <edge id=":6_1" function="internal">
        <lane id=":6_1_0" index="0" speed="21.72" length="4.82" shape="198.35,3.10 199.17,1.86 200.00,1.45 200.82,1.86 201.65,3.10"/>
    </edge>
    <edge id=":6_2" function="internal">
        <lane id=":6_2_0" index="0" speed="22.22" length="9.50" shape="195.25,0.00 204.75,0.00"/>
    </edge>
    <edge id=":6_3" function="internal">
        <lane id=":6_3_0" index="0" speed="21.97" length="7.85" shape="195.25,0.00 198.05,0.19 200.05,0.78 201.25,1.74 201.65,3.10"/>
    </edge>
    <edge id=":7_0" function="internal">
        <lane id=":7_0_0" index="0" speed="21.72" length="11.20" shape="198.35,55.60 198.35,44.40"/>
    </edge>
    <edge id=":7_1" function="internal">
        <lane id=":7_1_0" index="0" speed="24.75" length="11.81" shape="198.35,55.60 198.91,53.15 200.57,51.40 203.36,50.35 207.25,50.00"/>
    </edge>
    <edge id=":7_2" function="internal">
        <lane id=":7_2_0" index="0" speed="21.72" length="4.82" shape="198.35,55.60 199.17,54.36 200.00,53.95 200.82,54.36 201.65,55.60"/>
    </edge>
    <edge id=":7_3" function="internal">
        <lane id=":7_3_0" index="0" speed="24.75" length="9.03" shape="201.65,44.40 202.00,46.85 203.05,48.60 204.80,49.65 207.25,50.00"/>
    </edge>
    <edge id=":7_4" function="internal">
        <lane id=":7_4_0" index="0" speed="21.72" length="11.20" shape="201.65,44.40 201.65,55.60"/>
    </edge>
    <edge id=":7_5" function="internal">
        <lane id=":7_5_0" index="0" speed="21.72" length="4.82" shape="201.65,44.40 200.83,45.64 200.00,46.05 199.18,45.64 198.35,44.40"/>
    </edge>
    <edge id=":7_6" function="internal">
        <lane id=":7_6_0" index="0" speed="24.75" length="9.03" shape="192.75,50.00 195.20,49.65 196.95,48.60 198.00,46.85 198.35,44.40"/>
    </edge>
    <edge id=":7_7" function="internal">
        <lane id=":7_7_0" index="0" speed="27.78" length="14.50" shape="192.75,50.00 207.25,50.00"/>
    </edge>
    <edge id=":7_8" function="internal">
        <lane id=":7_8_0" index="0" speed="24.75" length="11.81" shape="192.75,50.00 196.64,50.35 199.42,51.40 201.09,53.15 201.65,55.60"/>
    </edge>
    <edge id=":8_0" function="internal">