[General]
cmdenv-event-banner-details = true
cmdenv-event-banners = true
cmdenv-express-mode = false
cmdenv-autoflush = true
cmdenv-log-prefix = "[%c%?-%l] %G:%R "
cmdenv-performance-display = false
result-dir = veins-runall-output

#tkenv-default-config = accident
#tkenv-default-run = 1

network = scenario

##########################################################
#            Simulation parameters                       #
##########################################################
debug-on-errors = true
print-undisposed = false

sim-time-limit = 200s

**.scalar-recording = true
**.vector-recording = true

*.playgroundSizeX = 14935m
*.playgroundSizeY = 8039m
*.playgroundSizeZ = 50m


##########################################################
# Annotation parameters                                  #
##########################################################
*.annotations.draw = false

##########################################################
#            WorldUtility parameters                     #
##########################################################
*.world.useTorus = false
*.world.use2D = false

##########################################################
#            TraCIScenarioManager parameters             #
##########################################################
*.manager.updateInterval = 1s
*.manager.host = "localhost"
*.manager.port = 9999
*.manager.moduleType = "org.car2x.veins.nodes.Car"
*.manager.moduleName = "node"
*.manager.moduleDisplayString = ""
*.manager.autoShutdown = true
*.manager.margin = 25
*.manager.launchConfig = xmldoc("map_nttd.launchd.xml")
#*.manager.launchConfig = xmldoc("sumo-launchd.launch.xml")
*.manager.trafficLightModuleType = "org.car2x.veins.nodes.TrafficLight"
*.manager.trafficLightModuleName = "trafficLight"
*.manager.trafficLightModuleDisplayString = default
*.manager.trafficLightFilter = "10"
*.manager.ignoreGuiCommands = true

##########################################################
#                       TLS SETTINGS                     #
#                                                        #
#                                                        #
##########################################################
*.trafficLight[0].mobility.x = 0
*.trafficLight[0].mobility.y = 0
*.trafficLight[0].mobility.z = 3

*.trafficLight[*].applType = "test.myveins.TrafficLightApp"
*.trafficLight[*].logicType ="test.myveins.TrafficLightTestLogic"
*.trafficLight[*].appl.headerLength = 4096bit
*.trafficLight[*].appl.sendBeacons = false
*.trafficLight[*].appl.dataOnSch = false
#*.trafficLight[*].


##########################################################
#            11p specific parameters                     #
#                                                        #
#                    NIC-Settings                        #
##########################################################
*.connectionManager.sendDirect = true
*.connectionManager.maxInterfDist = 2600m
*.connectionManager.drawMaxIntfDist = false

*.**.nic.mac1609_4.useServiceChannel = false

*.**.nic.mac1609_4.txPower = 20mW
*.**.nic.mac1609_4.bitrate = 18Mbps

*.**.nic.phy80211p.minPowerLevel = -110dBm
*.**.nic.phy80211p.useNoiseFloor = true
*.**.nic.phy80211p.noiseFloor = -98dBm
*.**.nic.phy80211p.decider = xmldoc("config.xml")
*.**.nic.phy80211p.analogueModels = xmldoc("config.xml")
*.**.nic.phy80211p.usePropagationDelay = true

##########################################################
#                      AppLayer                          #
##########################################################

*.node[*].applType = "test.myveins.TraCI"
*.node[*].appl.headerLength = 4096bit
*.node[*].appl.sendBeacons = true
*.node[*].appl.dataOnSch = false
*.node[*].appl.beaconInterval = 10s

##########################################################
#                      Mobility                          #
##########################################################
*.node[*].veinsmobility.x = 0
*.node[*].veinsmobility.y = 0
*.node[*].veinsmobility.z = 0
*.node[*].veinsmobility.setHostSpeed = true
#*.TraCIVehicleInserter.numVehicles = 100

[Config withgui]
*.manager.ignoreGuiCommands = false
