<?xml version="1.0" encoding="UTF-8"?>

<!-- generated on 2023-05-28 22:30:51 by Eclipse SUMO duarouter Version 1.17.0
<configuration xmlns:xsi="http://www.w3.org/2001/XMLSchema-instance" xsi:noNamespaceSchemaLocation="http://sumo.dlr.de/xsd/duarouterConfiguration.xsd">

    <input>
        <net-file value="net.net.xml"/>
        <route-files value="trips.trips.xml"/>
    </input>

    <output>
        <output-file value="routes.rou.xml"/>
    </output>

    <report>
        <ignore-errors value="true"/>
    </report>

</configuration>
-->

<routes xmlns:xsi="http://www.w3.org/2001/XMLSchema-instance" xsi:noNamespaceSchemaLocation="http://sumo.dlr.de/xsd/routes_file.xsd">
    <vehicle id="0" depart="0.00">
        <route edges="62 28 31 34 37 40 12"/>
    </vehicle>
    <vehicle id="2" depart="2.00">
        <route edges="69 8 36 70"/>
    </vehicle>
    <vehicle id="4" depart="4.00">
        <route edges="40 12"/>
    </vehicle>
    <vehicle id="5" depart="5.00">
        <route edges="28 31 34 37 40 43 46 49 18 51"/>
    </vehicle>
    <vehicle id="7" depart="7.00">
        <route edges="63 28 31 34 37 40 43 46 49 52 55"/>
    </vehicle>
    <vehicle id="8" depart="8.00">
        <route edges="28 4 64"/>
    </vehicle>
</routes>
