<?xml version="1.0" encoding="UTF-8"?>

<!-- generated on 2023-05-28 22:30:51 by Eclipse SUMO duarouter Version 1.17.0
<configuration xmlns:xsi="http://www.w3.org/2001/XMLSchema-instance" xsi:noNamespaceSchemaLocation="http://sumo.dlr.de/xsd/duarouterConfiguration.xsd">

    <input>
        <net-file value="net.net.xml"/>
        <route-files value="trips.trips.xml"/>
    </input>

    <output>
        <output-file value="routes.rou.xml"/>
    </output>

    <report>
        <ignore-errors value="true"/>
    </report>

</configuration>
-->

<routes xmlns:xsi="http://www.w3.org/2001/XMLSchema-instance" xsi:noNamespaceSchemaLocation="http://sumo.dlr.de/xsd/routes_file.xsd">

       <vehicle id="3" depart="1.00">
        <route edges="25 28 31 34 37 40 43 46 49 52 55"/>
   </vehicle>
       <vehicle id="4" depart="2.05">
        <route edges="25 28 31 34 37 40 43 46 49 52 55"/>
   </vehicle>
       <vehicle id="5" depart="3.10">
        <route edges="25 28 31 34 37 40 43 46 49 52 55"/>
   </vehicle>
       <vehicle id="6" depart="4.15">
        <route edges="25 28 31 34 37 40 43 46 49 52 55"/>
   </vehicle>
       <vehicle id="7" depart="5.20">
        <route edges="25 28 31 34 37 40 43 46 49 52 55"/>
   </vehicle>
       <vehicle id="8" depart="6.25">
        <route edges="25 28 31 34 37 40 43 46 49 52 55"/>
   </vehicle>
       <vehicle id="9" depart="7.30">
        <route edges="25 28 31 34 37 40 43 46 49 52 55"/>
   </vehicle>

    <vehicle id="0" depart="30.00">
        <route edges="E0 29 32 35 38 41 44 47 50 53 E13"/>
    </vehicle>
    <vehicle id="1" depart="30.00">
        <route edges="25 28 31 34 37 40 43 46 49 52 55"/>
   </vehicle>
</routes>
