<?xml version="1.0" encoding="UTF-8"?>

<!-- generated on 2023-03-19 22:00:59 by Eclipse SUMO polyconvert Version 1.16.0
<configuration xmlns:xsi="http://www.w3.org/2001/XMLSchema-instance" xsi:noNamespaceSchemaLocation="http://sumo.dlr.de/xsd/polyconvertConfiguration.xsd">

    <input>
        <net-file value="caotoc.net.xml"/>
        <osm-files value="caotoc.osm.xml"/>
    </input>

    <output>
        <output-file value="caotoc.poly.xml"/>
    </output>

</configuration>
-->

<additional xmlns:xsi="http://www.w3.org/2001/XMLSchema-instance" xsi:noNamespaceSchemaLocation="http://sumo.dlr.de/xsd/additional_file.xsd">
    <location netOffset="-662245.88,-1177245.89" convBoundary="-4914.33,-5453.35,15343.15,11718.23" origBoundary="106.438127,10.597084,106.623759,10.752139" projParameter="+proj=utm +zone=48 +ellps=WGS84 +datum=WGS84 +units=m +no_defs"/>

    <poly id="1010212880" type="landuse" color="194,194,130" fill="1" layer="-3.00" shape="9156.795483,4425.038022 9152.163037,4413.057598 9145.764818,4401.953096 9136.451995,4385.281198 9128.003058,4372.993835 9116.925008,4359.244153 9104.992529,4341.397580 9091.862290,4326.752624 9076.669439,4313.269681 9055.645494,4293.330757 9035.762467,4279.237829 9018.208686,4267.490586 8993.051248,4253.658543 9018.253028,4258.741578 9042.580195,4265.866481 9070.995877,4273.587302 9098.554662,4279.854815 9112.613323,4284.007607 9121.111093,4286.672154 9125.494088,4289.603421 9128.994448,4294.001322 9130.984575,4307.129741 9135.560892,4330.181919 9138.996225,4347.399172 9143.026109,4361.710404 9148.497381,4383.019491 9151.653598,4397.027647 9154.524823,4408.988075 9156.795483,4425.038022"/>
    <poly id="1010212881" type="landuse" color="194,194,130" fill="1" layer="-3.00" shape="9161.197572,4309.904441 9165.099053,4304.238886 9167.402445,4300.899092 9174.453483,4299.773458 9187.351967,4301.874116 9204.939079,4304.883447 9224.869406,4309.641253 9240.118399,4312.052507 9256.532042,4315.631083 9272.356399,4318.919090 9269.786018,4320.974448 9267.644025,4322.689090 9257.362809,4324.384542 9242.670546,4328.679064 9233.256193,4334.172841 9220.294129,4344.603940 9209.095719,4352.422538 9199.340157,4366.951417 9192.811853,4381.485612 9185.365396,4404.487865 9182.940925,4418.755297 9178.643756,4398.912207 9174.048292,4379.642777 9170.031108,4360.674929 9166.880783,4345.505398 9163.729053,4330.612385 9161.197572,4309.904441"/>
    <poly id="1010642533" type="water" color="181,209,209" fill="0" layer="-4.00" shape="5956.808891,4442.370748 5967.560055,4394.552994 6020.645987,4340.586058 6030.197611,4307.395819 6014.419621,4176.135772 5969.850956,4169.498613 5952.327534,4153.671832 5945.311497,4125.818930 5962.482130,4093.839043 6016.871772,4037.378784 6020.588815,3998.330433 5999.223492,3949.921429"/>
    <poly id="1010642534" type="water" color="181,209,209" fill="0" layer="-4.00" shape="5999.223492,3949.921429 5993.749640,3937.517114"/>
    <poly id="1050219890" type="building" color="255,230,230" fill="1" layer="-1.00" shape="11965.284996,4906.591030 11974.103955,4908.439485 11977.232506,4893.644776 11968.413485,4891.807381 11965.284996,4906.591030"/>
    <poly id="1050219891" type="building" color="255,230,230" fill="1" layer="-1.00" shape="11810.277142,4904.575092 11815.543877,4903.673102 11812.951685,4888.705110 11807.684948,4889.607101 11810.277142,4904.575092"/>
    <poly id="1087729704" type="building" color="255,230,230" fill="1" layer="-1.00" shape="11273.967686,5050.144639 11273.034641,5055.017786 11312.128478,5062.386279 11306.563338,5091.558966 11198.702727,5071.260735 11204.245723,5042.121114 11231.579789,5047.261135 11234.081124,5035.239518 11201.359202,5029.032080 11204.809898,5011.086595 11207.752203,5009.055406 11213.043497,5007.622521 11219.831742,5002.281699 11223.484939,4991.770307 11225.039542,4987.287490 11228.051294,4984.515566 11232.261253,4980.621566 11238.286241,4979.048658 11244.001544,4980.261555 11248.972077,4983.771334 11255.524468,4992.399465 11258.013399,4993.440934 11263.901401,4990.849706 11283.803440,4994.624249 11284.432593,4991.408704 11317.657258,4997.718353 11306.551975,5055.455495 11273.967686,5050.144639"/>
    <poly id="1087729705" type="building" color="255,230,230" fill="1" layer="-1.00" shape="11239.721743,5033.952226 11237.219298,5048.318788 11251.919147,5051.082154 11255.213364,5033.788471 11254.477603,5036.461475 11239.721743,5033.952226"/>
    <poly id="1107017576" type="water" color="181,209,209" fill="0" layer="-4.00" shape="8921.529874,4948.091323 8920.305936,4960.783121 8921.389499,4975.787298 8925.189908,4990.042039 8934.362439,5012.785659 8938.141418,5031.265588 8937.674714,5047.799385 8932.175825,5064.318734 8919.633293,5093.489321 8904.400468,5120.334529 8857.634855,5180.490450 8845.908067,5201.977806 8833.070478,5213.836488 8811.336055,5224.112623 8794.664901,5228.264518 8765.224436,5230.803207 8748.172378,5234.566060 8735.755934,5241.040213 8716.752819,5245.556408 8700.489174,5247.011534 8685.016596,5243.471115 8674.604577,5236.494238 8644.515875,5213.655893 8632.966468,5200.125184 8625.654125,5192.400808 8615.990316,5188.889822 8597.021475,5188.793838 8567.555725,5196.332128 8531.460899,5214.621347 8512.442262,5222.212523 8495.791837,5224.440059 8484.189809,5221.306444 8464.850557,5216.585178 8442.407639,5213.396768 8416.081720,5214.425092 8398.262809,5216.248575 8386.618012,5221.576408 8377.651183,5233.841933 8374.092771,5249.596869 8368.214011,5263.415474 8360.030445,5272.222882 8347.226107,5277.544865 8332.129854,5277.468590 8305.068154,5270.407721 8288.799438,5270.712677 8275.217744,5278.331437 8265.460707,5293.280803 8255.641450,5320.551753 8250.815513,5355.524218 8250.698933,5378.607827 8257.185276,5398.262707 8264.054540,5417.908464 8275.600133,5432.202224 8292.953245,5444.600722 8306.437020,5458.517154 8318.344106,5477.038043 8325.221026,5495.157448 8327.825136,5516.706281 8325.406865,5536.316190 8322.163340,5565.533896 8322.058371,5586.305834 8331.964982,5617.514602 8337.676487,5636.778465 8340.281309,5656.015568 8341.323446,5681.416785 8336.751923,5741.786488 8333.533650,5766.004771 8327.631653,5784.435672 8320.193057,5801.708467 8311.607290,5814.363048 8297.970131,5830.830251 8285.482064,5851.539610 8278.022835,5870.736911 8277.898471,5895.346902 8280.469450,5923.443652 8280.327526,5951.526694 8280.243958,5968.062396 8279.377844,5985.755544 8275.809779,6003.435036 8269.129206,6022.249137 8258.626054,6033.345498 8239.195893,6046.708491 8212.416604,6059.658291 8195.722664,6068.422713 8182.114817,6079.116275 8175.094183,6089.467043 8173.103555,6100.230351 8171.500923,6112.145959 8170.296689,6120.988635 8165.206463,6132.499492 8152.719249,6150.908203 8124.664025,6186.924746 8096.248118,6216.391404 8085.764460,6223.649753 8079.126746,6234.002466 8074.811278,6245.904375 8070.438243,6267.041884 8062.738207,6286.304356"/>
    <poly id="1107017577" type="water" color="181,209,209" fill="0" layer="-4.00" shape="8891.111835,4845.567840 8920.075144,4930.773521"/>
    <poly id="1107017578" type="water" color="181,209,209" fill="0" layer="-4.00" shape="8920.075144,4930.773521 8921.529874,4948.091323"/>
    <poly id="1107017580" type="water" color="181,209,209" fill="0" layer="-4.00" shape="8035.625404,4122.548851 8024.973853,4095.705616 7999.412925,4018.548554 7996.434939,4008.147344 7990.408915,3999.080216 7975.298781,3988.617906 7950.076083,3976.777371 7924.833212,3968.940810 7890.825890,3961.403041 7878.717346,3956.652264 7866.615535,3950.563154 7856.837094,3950.182115 7852.790206,3952.174837 7853.754525,3960.552805 7854.718842,3968.930774 7853.641641,3982.983781 7847.840101,3996.692246 7842.386211,4008.710141 7829.506695,4022.382990 7817.329103,4031.358484 7798.753469,4039.969964 7779.885522,4043.624692 7754.839461,4044.516308 7732.384699,4041.350558 7705.804528,4042.743297 7644.974403,4050.058438 7624.516124,4054.523762 7611.710566,4060.034100 7603.337914,4065.102162"/>
    <poly id="1107017581" type="water" color="181,209,209" fill="0" layer="-4.00" shape="8211.450146,3667.403886 8217.397659,3689.876509 8233.916534,3757.265596 8244.811816,3800.856387 8248.138156,3811.591211 8252.481937,3817.984219 8263.882671,3830.761800 8265.876124,3836.800066 8264.836743,3841.152833 8259.089126,3844.132417 8243.206105,3852.425437 8189.057731,3897.026595 8181.287951,3899.664166 8167.794162,3900.602680 8156.704689,3895.525111 8142.913093,3890.433925 8133.458595,3893.063014 8120.629581,3896.681643 8108.159938,3896.286970 8096.387121,3892.212523 8071.174574,3878.347804 8051.308000,3873.900767 8041.557354,3870.168356 8033.158238,3863.091296 8024.781869,3853.669437 8014.705564,3847.258651 8001.230319,3844.514039 7959.784632,3843.298787 7946.964093,3845.236264 7937.512946,3847.201770 7929.406527,3851.518962 7910.747332,3874.531297 7902.607240,3885.540183 7895.180017,3887.504825 7845.962117,3887.257129 7841.918563,3888.586215"/>
    <poly id="1107017582" type="water" color="181,209,209" fill="0" layer="-4.00" shape="7837.297533,3935.107305 7839.957513,3943.493805 7847.006849,3949.225651 7852.790206,3952.174837"/>
    <poly id="1107017583" type="water" color="181,209,209" fill="0" layer="-4.00" shape="7841.918563,3888.586215 7837.297533,3935.107305"/>
    <poly id="1111796544" type="building" color="255,230,230" fill="1" layer="-1.00" shape="10138.884132,4840.962948 10159.212767,4780.474352 10204.010662,4795.624383 10183.526423,4856.576732 10138.884132,4840.962948"/>
    <poly id="1118912372" type="landuse" color="194,194,130" fill="1" layer="-3.00" shape="11132.446639,4805.797343 11137.528404,4811.088505 11153.202534,4815.880992 11172.868206,4825.229026 11191.411965,4840.013366 11203.575398,4853.127912 11213.531559,4867.868169 11219.297853,4882.586910 11223.950584,4901.116009 11225.686251,4918.889034 11226.941977,4923.607508 11231.118762,4926.173013 11348.737560,4948.722594 11359.729111,4940.792983 11381.649444,4794.567362 11376.745529,4788.735078 11149.025186,4740.964942 11144.448490,4743.839452 11132.446639,4805.797343"/>
    <poly id="147067913" type="water" color="181,209,209" fill="0" layer="-4.00" shape="12502.502713,6214.096208 12447.099435,6194.065096 12391.597821,6174.000393 12264.187391,6074.222134 12041.697044,5975.125707 12012.025144,5963.159164 11854.298822,5899.528836 11629.465496,5800.412340 11373.060834,5675.484424 11095.553528,5548.116481 10949.102867,5497.280151 10822.485954,5469.818699 10678.280485,5437.588819 10561.078143,5406.670285 10415.749487,5365.111388 10368.296753,5343.023153 10306.852624,5314.414891 10191.818860,5270.036489 10042.057522,5224.441564 9861.466236,5192.029798 9631.723252,5133.718328 9527.405106,5105.203139 9434.210442,5062.033717 9396.050594,5043.080275 9335.405904,5009.777126 9163.240991,4937.769595 9061.405077,4881.273245 8957.120499,4848.092445 8891.111835,4845.567840 8781.101006,4841.371534 8693.094688,4836.258280 8532.525339,4789.974407 8374.371659,4733.195662 8312.205860,4723.557328 8147.877117,4726.223231 8076.301689,4721.205592 7892.195737,4688.787310 7708.036765,4666.866626 7536.780395,4646.184284 7336.319679,4596.199692 7046.505226,4578.420226 6990.237000,4564.146282 6742.775788,4525.588149 6467.173491,4483.396138 6313.523761,4461.646776 6254.874124,4451.001268 6188.048953,4438.866138 6099.995718,4443.083898 5956.808891,4442.370748"/>
    <poly id="147557821" type="water" color="181,209,209" fill="0" layer="-4.00" shape="4900.716396,7629.672232 4901.178900,7569.514824 4768.666968,6989.117306 4970.036161,6255.390903 5115.175112,5783.692768 5155.572081,5687.011570 5302.718835,5318.532005 5332.875011,5273.022666 5339.472912,5244.087162 5341.992722,5210.275720 5519.016800,4659.419342 5596.936311,4567.680882 5616.862964,4551.166545 5651.650111,4533.774836 5668.744819,4494.969962 5691.090161,4473.866378 5706.340225,4447.440462 5710.049337,4416.521788 5713.604981,4372.462098"/>
    <poly id="226191208" type="tourism" color="207,245,201" fill="1" layer="-2.00" shape="12140.332747,4919.606368 12131.624699,4915.347113 12124.767867,4908.509113 12120.524254,4899.826336 12119.359352,4890.252442 12121.377250,4880.816652 12126.375784,4872.535547 12133.803235,4866.324355 12142.868465,4862.853720 12152.574026,4862.494572 12161.869483,4865.285733 12169.739048,4870.912245 12175.343452,4878.772471 12178.085357,4888.022680 12177.652716,4897.654696 12174.094716,4906.617963 12167.799214,4913.952167 12159.459522,4918.864488 12149.953604,4920.817466 12140.332747,4919.606368"/>
    <poly id="226191284" type="landuse" color="194,194,130" fill="1" layer="-3.00" shape="13868.007555,5394.536450 13876.955050,5365.425743 12226.634238,4896.967500 12217.031873,4932.413088 13868.007555,5394.536450"/>
    <poly id="262844546" type="water" color="181,209,209" fill="1" layer="-4.00" shape="12844.347659,572.896661 12846.129960,564.643194 12855.740544,568.088603 12882.747186,582.253636 12901.003100,587.491383 12926.476473,591.350608 12950.293938,608.640588 12967.751365,630.764619 12974.914588,665.279241 12975.918398,693.335501 12974.655010,715.495510 12987.165672,746.321238 13004.881553,773.457342 13022.028627,798.444655 13039.359966,817.415667 13060.593810,832.834124 13078.056185,853.962765 13088.298145,877.045072 13092.468387,902.109101 13098.070249,921.152210 13107.902852,949.331603 13115.676384,982.146034 13126.696665,1017.609827 13150.373066,1047.276719 13175.620520,1086.254203 13196.011301,1120.759983 13206.036957,1151.772087 13210.141979,1185.175932 13209.751787,1220.381593 13229.489931,1262.571542 13251.490829,1300.923947 13265.361805,1328.836758 13276.907476,1349.415039 13291.038138,1371.544223 13320.481270,1407.313764 13349.516433,1443.678530 13375.661965,1469.708274 13400.597360,1490.676814 13430.913169,1535.344198 13458.351860,1582.031953 13478.614847,1645.263221 13499.689637,1703.841971 13541.036128,1781.750302 13574.086137,1849.704816 13602.757344,1897.029654 13619.885394,1929.682744 13641.403885,1982.788672 13659.760721,2016.875073 13690.183942,2072.283802 13718.271252,2122.415306 13744.498328,2170.479795 13763.790390,2209.825218 13793.969431,2286.868535 13818.464173,2318.763698 13842.021032,2350.067763 13883.725407,2339.942521 14010.739210,2312.286971 14068.637338,2299.834922 14122.502608,2286.565546 14147.593711,2279.550741 14168.370799,2271.075511 14193.039051,2263.328492 14233.737676,2246.805020 14262.430598,2239.366620 14315.762666,2229.778133 14370.670221,2220.197945 14421.989364,2210.588052 14446.356343,2203.989998 14473.495523,2192.406754 14519.528012,2172.758984 14590.412069,2139.646810 14655.959448,2106.086550 14743.537147,2100.670753 14840.933410,2092.308934 15017.255518,2080.212561 15026.738519,2082.839486 15007.003530,2084.450654 14936.707710,2088.662055 14820.163732,2097.211049 14712.255522,2107.232471 14659.534296,2110.817318 14581.996642,2150.476050 14518.775322,2178.617508 14446.179014,2210.714301 14414.174757,2217.416294 14302.481549,2235.858906 14245.963295,2248.008065 14191.712506,2268.044718 14161.857500,2278.043318 14109.053227,2297.656240 14064.508068,2307.014264 13983.351523,2323.327255 13913.277032,2339.852958 13859.215098,2351.008929 13846.203849,2357.821304 13870.349892,2414.657721 13886.127685,2464.891325 13913.315975,2502.640928 13929.016830,2536.105379 13937.673095,2558.814857 13940.551690,2592.212570 13952.869004,2611.501081 13979.624328,2635.709593 14009.330769,2679.368054 14032.419865,2703.767689 14039.068122,2719.177412 14035.384958,2760.438675 14038.877108,2793.640512 14053.999174,2822.644381 14073.023556,2846.016316 14094.819074,2883.472578 14131.492056,2879.294561 14251.295571,2868.183373 14321.805372,2858.242209 14356.428553,2859.020222 14419.378720,2861.594296 14558.563878,2872.486636 14627.343472,2881.717252 14699.039022,2885.664926 14747.565318,2886.925327 14786.997670,2890.704423 14785.531835,2894.844722 14734.859255,2891.858544 14690.226183,2890.917174 14621.278995,2886.541435 14557.528230,2878.056090 14458.209519,2869.528882 14402.646597,2866.517670 14343.471595,2865.921168 14299.967153,2868.846578 14189.027543,2879.572432 14109.499624,2888.017831 14098.839075,2893.050424 14123.431195,2950.188141 14143.698928,2984.771634 14169.755544,3012.803908 14200.609922,3033.428091 14211.202451,3049.820771 14209.671127,3068.627927 14202.651329,3088.822290 14211.645816,3120.028681 14244.916207,3182.919416 14265.886457,3223.291717 14285.563740,3276.609990 14303.306420,3310.693767 14325.509200,3349.656727 14345.721032,3378.090080 14366.187965,3437.275017 14393.242073,3515.099389 14396.607042,3518.092440 14401.840718,3517.301249 14407.109931,3515.990366 14423.672201,3503.732553 14438.420534,3488.965428 14446.981839,3475.283164 14472.955207,3464.689487 14487.412328,3453.316658 14496.425966,3438.917785 14513.325778,3426.982546 14543.171487,3420.700917 14577.193644,3412.870454 14599.638223,3415.985418 14617.740045,3398.061313 14643.444365,3382.455597 14659.229625,3366.090089 14688.632616,3360.801774 14712.918763,3342.334879 14714.631615,3318.163945 14724.774954,3305.341723 14742.684842,3294.849825 14751.279023,3277.008753 14760.219772,3247.300771 14757.180403,3221.810798 14767.224222,3200.835918 14779.024348,3174.571890 14787.307145,3161.883737 14783.467033,3178.599316 14770.048087,3213.150811 14765.218672,3226.576021 14766.777275,3259.060020 14753.081676,3290.037283 14740.905402,3304.563354 14725.734286,3314.361663 14720.623173,3329.356099 14718.654346,3348.083558 14702.030174,3359.588765 14671.259967,3379.448645 14640.350809,3396.597814 14616.794955,3413.508933 14601.322641,3424.433958 14570.514265,3424.416654 14522.062136,3436.330717 14501.138921,3445.656592 14485.905168,3467.467170 14454.134877,3484.047860 14434.424924,3508.257475 14405.244303,3527.561736 14408.767339,3542.180976 14435.880025,3587.817512 14455.704982,3614.866294 14476.612269,3667.173566 14498.782463,3710.184959 14511.371923,3756.785433 14529.703460,3795.319111 14551.877705,3837.523115 14588.951618,3913.387038 14618.032796,3959.056234 14643.718203,3992.982770 14663.365741,4051.754490 14684.294852,4139.469188 14701.599999,4179.623662 14739.447548,4222.507250 14758.423994,4254.772784 14772.431794,4301.989255 14792.664947,4365.830249 14831.022280,4430.363560 14867.819051,4519.168241 14903.768950,4575.404177 14965.262648,4654.825853 14979.241995,4686.512312 14991.298166,4746.948006 15007.471071,4794.242398 15044.302733,4855.372285 15096.279016,4936.624799 15115.348373,4980.206842 15132.029683,5038.952443 15146.600339,5116.280996 15171.374134,5169.339409 15203.842983,5184.099867 15268.846313,5199.042452 15298.390661,5212.382852 15278.773917,5248.018745 15248.249714,5227.538674 15176.367100,5205.989568 15158.531451,5233.726050 15148.371827,5249.700474 15125.779923,5245.710334 15088.229264,5240.369592 15040.435805,5237.685123 15043.346405,5233.408629 15070.113874,5235.982673 15097.600728,5236.978754 15141.643830,5241.358100 15155.876216,5218.547075 15167.639362,5199.295874 15139.823142,5177.690835 15126.484996,5138.563369 15119.352581,5098.904384 15103.591919,5021.093970 15081.781625,4951.558834 15037.235534,4880.366862 14998.377510,4821.792562 14977.322071,4773.034590 14966.044109,4726.916273 14953.599438,4684.220841 14919.595088,4632.541203 14878.713099,4575.958599 14846.519958,4510.550476 14804.297019,4434.227684 14754.397318,4449.131229 14717.729409,4467.245540 14691.697455,4489.143229 14674.227370,4501.418228 14642.879052,4500.236449 14599.604828,4509.721688 14546.963635,4525.905325 14499.603856,4550.976727 14467.565097,4564.679932 14431.199120,4579.510901 14393.445004,4612.939660 14367.668685,4640.413754 14331.961330,4667.404561 14297.490024,4707.000609 14261.308564,4741.001819 14238.726650,4764.344710 14243.558998,4748.198429 14278.036571,4709.476212 14309.579116,4679.731467 14327.705906,4654.794624 14363.098938,4633.520831 14389.428397,4609.058284 14411.461138,4581.984952 14428.800197,4569.631724 14460.544023,4557.929029 14512.503470,4534.020952 14530.293675,4519.092856 14562.575093,4513.388256 14613.649140,4495.636799 14655.160680,4486.407815 14685.757807,4472.265827 14707.772118,4448.776392 14757.532582,4433.296866 14793.327318,4416.892510 14761.278303,4351.053888 14730.393196,4253.044211 14708.421687,4214.015646 14674.920312,4178.930916 14654.814993,4113.586389 14629.950675,4021.039486 14600.844682,3969.673593 14549.203769,3878.126031 14497.505173,3795.460473 14486.395360,3771.366308 14479.989038,3730.693811 14462.961360,3683.395425 14441.653644,3626.064267 14398.852163,3551.155146 14380.450874,3544.765176 14370.586174,3558.739296 14351.169721,3581.235987 14308.513039,3589.596741 14267.868794,3598.078663 14220.717454,3618.671899 14201.357358,3622.010903 14183.637530,3621.310066 14154.022478,3637.957547 14122.661814,3638.999617 14086.401349,3641.852325 14058.240310,3652.423791 14024.168852,3665.597034 13986.283669,3667.423740 13971.012328,3667.145040 13937.716778,3686.793217 13914.366929,3712.576911 13893.334351,3721.968908 13866.662442,3721.829959 13838.956230,3724.926578 13811.803288,3737.328578 13793.832886,3746.946741 13781.135370,3760.839870 13779.419950,3777.223649 13773.270133,3785.885738 13752.509717,3782.945982 13738.316958,3770.937054 13726.174816,3755.908038 13701.956287,3753.149418 13674.513826,3745.518172 13661.922666,3738.981852 13648.533151,3728.182821 13637.007800,3712.349587 13619.708034,3710.832697 13606.323674,3699.038205 13593.987749,3683.388815 13570.165498,3682.258356 13531.209413,3694.389030 13502.732194,3687.969288 13483.973301,3693.546171 13497.871421,3682.280690 13520.056177,3684.829479 13552.670453,3678.318086 13579.978541,3676.037689 13596.265154,3676.730757 13610.029677,3691.159785 13624.009767,3706.209370 13638.045251,3708.505686 13654.456555,3725.182870 13669.473658,3734.364376 13694.062272,3743.794802 13722.358284,3747.183004 13740.837029,3757.599297 13753.798173,3770.818545 13767.827295,3774.331620 13773.388078,3763.232998 13779.802717,3743.632753 13799.421040,3730.594189 13834.504500,3718.432584 13856.310846,3715.913595 13881.354818,3715.634790 13902.774256,3709.684838 13917.906239,3696.810999 13942.459200,3675.292144 13967.990203,3659.242641 13988.412390,3649.427173 14012.271153,3641.465793 14052.994899,3642.883789 14089.288005,3633.770565 14118.646960,3628.459450 14149.185427,3629.835494 14177.378869,3610.968345 14210.185482,3607.489336 14247.311905,3595.947147 14283.626280,3582.785816 14308.889874,3580.285150 14330.287329,3578.582844 14357.878857,3557.688474 14358.191342,3537.658209 14370.312483,3516.882149 14367.396517,3490.762402 14344.493147,3430.956367 14325.020768,3378.247463 14295.888579,3340.066859 14272.121507,3290.576531 14252.161164,3245.375731 14215.992438,3167.647811 14186.631868,3110.263874 14184.829253,3069.914189 14170.869934,3040.374287 14143.338655,3018.196766 14113.598861,2976.838667 14074.297552,2893.364964 14039.458262,2835.388565 14021.189232,2803.525576 14019.091467,2765.176481 14016.124451,2725.672494 14003.605945,2696.715400 13979.857647,2666.538402 13957.277861,2634.664087 13930.845666,2621.938811 13905.212226,2621.805370 13911.344219,2606.097192 13923.311331,2574.966883 13915.403099,2545.171070 13892.893160,2499.846759 13868.295162,2466.811667 13850.134381,2414.065845 13828.781919,2367.033143 13794.749376,2319.923455 13775.955448,2279.485528 13753.523472,2216.983739 13712.056874,2162.402407 13692.457388,2108.509961 13669.924492,2067.477523 13632.594293,2046.388992 13606.001038,2062.455499 13565.764167,2084.910903 13452.413967,2148.665365 13345.802722,2208.406706 13299.026800,2234.467585 13255.406347,2280.775761 13190.429263,2322.924891 13153.440738,2347.819932 13116.446999,2373.732605 13070.723004,2395.341540 13012.974421,2417.098425 12864.814666,2478.451005 12770.287351,2524.894512 12727.407254,2546.728718 12686.415404,2558.861044 12667.242498,2564.027048 12680.735353,2554.982405 12720.912908,2541.640197 12765.024623,2518.595625 12854.440609,2476.771342 12951.806475,2431.548393 13023.847057,2402.786277 13073.632495,2382.813251 13117.714281,2365.642397 13148.384878,2341.721152 13203.772124,2302.763169 13249.341395,2273.056802 13272.267820,2250.909529 13287.826852,2233.801142 13340.941731,2202.707110 13467.990454,2130.329340 13549.078301,2082.999164 13594.818888,2058.349026 13622.010779,2038.668612 13629.471355,2013.609527 13614.816366,1972.463214 13599.166288,1924.885196 13567.074124,1872.664613 13549.143955,1834.333011 13513.666677,1763.943536 13480.795968,1701.454268 13460.355917,1638.620275 13433.605617,1573.132079 13417.093651,1537.639618 13396.696052,1504.549419 13378.280923,1481.590491 13356.179620,1462.660857 13326.419745,1428.913823 13297.686704,1393.358114 13275.036954,1368.342066 13260.800143,1343.469172 13247.183733,1314.993561 13220.922791,1273.179072 13202.191663,1233.018536 13193.166758,1205.252530 13191.123987,1166.594254 13184.793300,1131.962164 13163.596609,1094.620563 13142.600881,1060.720043 13119.568544,1024.994975 13104.664698,991.535281 13095.654798,962.950880 13084.858016,924.457506 13078.134443,885.365786 13065.237232,857.380719 13046.832427,834.422121 13018.614486,815.461172 13008.078069,804.876475 12997.448218,774.270617 12972.745553,746.224570 12963.877958,728.171183 12960.986473,696.996985 12961.111963,672.718416 12955.982812,640.515029 12943.682418,615.563880 12912.016775,596.784343 12882.694301,594.608659 12854.682379,578.071348 12844.347659,572.896661"/>
    <poly id="318323211" type="water" color="181,209,209" fill="1" layer="-4.00" shape="14639.890941,7051.070079 14615.271543,7164.783520 14527.347860,7142.708588 14458.174049,7116.462538 14282.662482,7024.818540 14201.937174,6975.427767 14143.418804,6944.802665 13735.607578,6826.064038 13687.057533,6775.968801 13609.861055,6746.087956 13360.117413,6583.890102 13248.826118,6544.828866 13042.620137,6474.955880 13002.702011,6477.082352 12887.851347,6445.005659 12743.760368,6381.109535 12599.860568,6292.902658 12412.000065,6226.812422 12359.349186,6218.188698 12174.974947,6067.986899 12031.951817,6027.704258 11988.240430,6018.651722 11985.284245,5993.715721 11330.745884,5690.475788 11080.171028,5576.077344 10941.893431,5533.567746 10496.511106,5411.173515 10410.340601,5391.696617 10320.953183,5346.652489 10187.230361,5298.816005 10040.730486,5257.252879 9862.461638,5230.682092 9537.876786,5126.239143 9406.747966,5062.778988 9335.322093,5028.425543 9183.051671,4968.177262 9152.583873,4957.525737 9051.921730,4904.718673 8958.199702,4870.430031 8696.516008,4858.430710 8523.071893,4807.579897 8371.929596,4753.181523 8374.371659,4733.195662 8380.321872,4718.238132 8531.452526,4774.970325 8696.698953,4822.284401 8954.848641,4836.588573 9063.820347,4870.965598 9169.156970,4929.625551 9413.914893,5025.915918 9433.440714,5032.684963 9533.366759,5090.245801 9869.786833,5175.746139 10050.330750,5215.314184 10198.007181,5257.878828 10346.739825,5320.613866 10426.380652,5354.845799 10691.244493,5405.456466 10731.307916,5413.537206 10951.554642,5479.971079 11102.648767,5536.229066 11357.349082,5648.314968 12011.337792,5937.383170 12201.685362,6009.500925 12284.849893,6040.824793 12414.597232,6143.535361 12609.741396,6208.004115 12772.306172,6319.049590 12868.425038,6343.451648 12941.041045,6372.985988 13008.433341,6380.415232 13109.834307,6413.506388 13429.726027,6503.881886 13701.832047,6651.054063 13828.964267,6691.958372 13837.843719,6688.409837 13843.615365,6695.530224 13896.334996,6713.879619 13943.861479,6727.445638 13969.644246,6733.995882 14311.596640,6868.221007 14532.027713,7022.132127 14589.439441,7040.507348 14639.890941,7051.070079"/>
    <poly id="32659121" type="water" color="181,209,209" fill="1" layer="-4.00" shape="10691.244493,5405.456466 10731.307916,5413.537206 10728.351673,5407.626509 10726.139363,5401.708563 10723.917515,5378.435753 10723.922553,5371.046985 10721.703491,5362.175701 10718.747691,5354.041733 10712.834735,5344.443617 10706.929424,5333.352297 10697.329393,5306.745498 10692.166574,5263.890606 10691.417229,5254.274702 10691.427282,5239.497170 10690.685022,5230.633455 10689.212776,5225.460396 10688.473528,5220.280032 10685.510111,5213.628215 10664.357857,5191.253963 10652.569280,5179.701151 10646.164276,5170.045230 10632.484526,5147.532292 10613.778093,5134.605692 10599.744793,5123.450672 10583.673219,5110.836229 10577.860131,5096.670443 10578.374586,5056.001563 10576.202108,5023.050613 10566.355072,4997.637215 10555.798519,4984.741309 10542.531544,4969.187947 10531.807261,4950.583689 10523.904344,4932.192967 10517.574769,4918.467002 10515.689165,4902.131240 10513.476773,4896.213320 10511.260157,4893.259741 10509.779904,4891.781049 10506.081851,4893.996466 10503.913467,4896.584722 10505.532455,4913.715515 10502.992366,4935.503860 10500.858698,4952.692885 10507.048961,4961.573393 10522.378618,4967.403562 10537.476200,4977.966683 10552.775254,5000.465724 10559.486084,5020.918775 10566.134324,5040.774211 10566.312637,5072.199589 10565.519653,5103.166494 10574.224486,5123.032461 10592.777604,5133.856650 10612.240056,5146.554825 10630.014270,5164.210787 10640.224094,5182.845647 10654.796964,5195.441390 10668.354459,5214.049161 10672.790518,5223.661822 10674.998278,5234.745254 10675.006761,5267.264828 10679.431528,5298.302717 10683.865946,5316.775287 10686.813383,5330.815816 10692.726293,5340.424987 10698.635402,5350.775232 10703.071036,5362.600113 10704.537844,5377.374152 10705.280034,5386.248930 10703.805719,5392.159047 10700.854531,5398.072660 10696.423124,5402.507568 10691.244493,5405.456466"/>