<?xml version="1.0"?>

<routes> <!-- The opening tag -->

   <!-- Vehicle types -->
   <vType id="passenger" length="5.0" width="2.0" maxSpeed="70.0" accel="2.6" decel="4.5" sigma="0.5"/>

   <!-- Routes + associated vehicles & flows -->
   <route id="trip-0" color="Magenta" edges="-897951831#0 -693041801#0 707610713#3 707610713#5 707610713#6 707610713#7 707610713#8 707610713#9 707610713#11 707610713#12 707610713#13 608496491#0 608496491#1 608496491#2 608496491#3 608507742#1 608510940#0 -952337763"/>
   <vehicle id="vehicle-0" type="passenger" color="Yellow" depart="0.0" route="trip-0"/>

   <route id="trip-1" color="Magenta" edges="-898312775 607211743#1 607211743#2 607211743#3 607211743#4 607211743#5 607211743#7 607211743#11 607211743#12 607211743#13 607211743#14 43243019 32584862#1 32584862#2 32584862#3 32584862#4 32584862#5 32584862#6 32584862#7 32584862#8 32584862#9 32584862#10 32584862#11 32584862#12 32584862#13 32584862#14 32584862#15 32584862#16 234901525#0 234901525#1 234901525#2 234901525#4 234901525#5 234901525#7 234901525#9 234901525#10 234901525#12 234901525#13 234901525#14 234901525#15 234901525#16 234901525#17 234901525#18 -43242731#3 -43242731#2 -43242731#1 -43242731#0 -298026950#15 -298026950#14 -298026950#13 -298026950#12 -298026950#11 -298026950#10 -298026950#9 475301742#0 475301742#1"/>
   <vehicle id="vehicle-1" type="passenger" color="Yellow" depart="0.01" route="trip-1"/>

   <route id="trip-2" color="Magenta" edges="-321568782#3 610729448 358286896#0 358286896#2 358286896#3 358286896#4 358286896#5 358286896#6 358286896#7 358286896#8 707610713#11 707610713#12 707610713#13 707610713#14 707610713#15 707610713#16 707610713#17 707610713#18 707610713#19 1008072829#8 1008072829#10 1008072829#11 1008072829#12 1008072829#13 1008072829#14 1008072829#15 1008072829#16 1008072829#17 1008072829#18 1008072829#19 1008072829#21 1008072829#22 1008072829#23 1008072829#24 1008072829#25 1008072829#26 1008072829#27 1008072829#28 1008072829#29"/>
   <vehicle id="vehicle-2" type="passenger" color="Yellow" depart="0.02" route="trip-2"/>

   <route id="trip-3" color="Magenta" edges="-898255387 610729420#6 -148351286#3 -148351286#2 -148351286#1 -148351286#0 298026950#14 298026950#15 43242731#0 43242731#1 43242731#2 43242731#3 608787756 608787750 608787747 608787793#1 608787793#2 608787793#3 608787793#4 608787793#6 608787793#7 608787793#9 608787793#11 608787793#12 608787793#13 608787793#15 608787793#16 608787793#17 608787771#0 608787771#1 608787771#2 608787771#3 608787771#4 608787771#5 32582473#1 32582473#2 32582473#3 32582473#4 32582473#5 32582473#7 707610715 707610713#0 707610713#1 707610713#3 707610713#5 707610713#6 707610713#7 707610713#8 707610713#9 707610713#11 707610713#12 707610713#13 707610713#14 707610713#15 707610713#16 707610713#17 707610713#18 707610713#19 1008072829#8 1008072829#10 1008072829#11 1008072829#12 1008072829#13 1008072829#14 1008072829#15 1008072829#16 1008072829#17 1008072829#18 1008072829#19 1008072829#21 1008072829#22 1008072829#23 1008072829#24 1008072829#25 1008072829#26 1008072829#27 -262844414#8 -262844414#7 -262844414#5 -262844414#4 -262844414#3 -262844414#2 -262844414#1 -262844414#0 -262844478#10 -262844478#9 -262844478#8 -262844478#6 262844412#0 608853245"/>
   <vehicle id="vehicle-3" type="passenger" color="Yellow" depart="0.03" route="trip-3"/>

   <route id="trip-4" color="Magenta" edges="-608523466#1 -608523466#0 -262844404#0 -264100095#12 -264100095#11 -264100095#10 -264100095#9 -264100095#8 -264100095#7 -264100095#6 -264100095#5 -264100095#4 -264100095#3 -264100095#2 -264100095#0 32576379#5 608816056#0 608816055"/>
   <vehicle id="vehicle-4" type="passenger" color="Yellow" depart="0.04" route="trip-4"/>

   <route id="trip-5" color="Magenta" edges="212248992#0 212248992#2 -212248992#2 -212248992#1 707610713#1 707610713#3 707610713#5 707610713#6 707610713#7 707610713#8 707610713#9 707610713#11 707610713#12 707610713#13 707610713#14 707610713#15 707610713#16 707610713#17 707610713#18 707610713#19 32576379#1 -470172124#2 -470172124#1 -470172124#0 262844523#1 -608832078 -608816059#1 -608832076 -608816057#0 707569133#3 -707569133#3"/>
   <vehicle id="vehicle-5" type="passenger" color="Yellow" depart="0.05" route="trip-5"/>

   <route id="trip-6" color="Magenta" edges="608490908 -608490908 -321568782#3 610729448 358286896#0 358286896#2 358286896#3 358286896#4 358286896#5 358286896#6 358286896#7 358286896#8 707610713#11 707610713#12 707610713#13 707610713#14 707610713#15 707610713#16 707610713#17 707610713#18 707610713#19 136700451#25 136700451#26 136700451#27 136700451#28 136700451#29 136700451#30 -321568771#3 -321568771#2 -321568771#1 608507754"/>
   <vehicle id="vehicle-6" type="passenger" color="Yellow" depart="0.06" route="trip-6"/>

   <route id="trip-7" color="Magenta" edges="693042934#1 -693042933 -693042934#0 -148350390#3 -148350390#2 -148350390#1 -148350390#0 -606893677 298026950#13 298026950#14 298026950#15 43242731#0 43242731#1 43242731#2 43242731#3 608787756 608787750 608787747 608787793#1 608787793#2 608787793#3 608787793#4 608787793#6 608787793#7 608787793#9 608787793#11 608787793#12 608787793#13 608787793#15 608787793#16 608787793#17 608787771#0 608787771#1 608787771#2 608787771#3 608787771#4 608787771#5 608787771#6 608787771#7 608787771#8 608787771#9 608787782#1 608787782#2 608787782#3 608787782#4 32582302#1 32582302#2 -607211735#4 -607211735#3 607211733 -461374127#4 -461374127#3"/>
   <vehicle id="vehicle-7" type="passenger" color="Yellow" depart="0.07" route="trip-7"/>

   <route id="trip-8" color="Magenta" edges="-833674289#0 608787756 608787750 608787747 608787793#1 608787793#2 608787793#3 608787793#4 608787793#6 608787793#7 608787793#9 608787793#11 608787793#12 608787793#13 608787793#15 608787793#16 608787793#17 608787771#0 608787771#1 608787771#2 608787771#3 608787771#4 608787771#5 32582473#1 32582473#2 32582473#3 32582473#4 32582473#5 -1145551334#8 -1145551334#7 -1145551334#4 -1145551334#3 -1145551334#2 -1145551334#1 -1145551334#0 -854573833 -213103303#3 -213103303#2 -213103303#1 607211708#0 -290622186#6 -290622186#5 -290622186#4 -290622186#3 -290622186#2 -290622186#1"/>
   <vehicle id="vehicle-8" type="passenger" color="Yellow" depart="0.08" route="trip-8"/>

   <route id="trip-9" color="Magenta" edges="-608523464#1 952308253 -264100095#4 -264100095#3 -264100095#2 -264100095#0 -32576379#4 -32576379#3 -32576379#2 -707610713#20 -707610713#18 -707610713#17 -707610713#16 -707610713#15 -707610713#14 -707610713#13 -707610713#12 -707610713#11 -358286896#8 -358286896#7 -358286896#6 -358286896#5 -358286896#4 -358286896#3 -358286896#2 -358286896#0 -1079816601 -321568782#2"/>
   <vehicle id="vehicle-9" type="passenger" color="Yellow" depart="0.09" route="trip-9"/>

   <route id="trip-10" color="Magenta" edges="136700451#8 136700451#9 136700451#10 136700451#11 136700451#12 136700451#13 -854573835#12 -854573835#11 -854573835#10 -854573835#9 -854573835#8 -854573835#7 -854573835#6 -854573835#5 -854573835#4 -854573835#3 -854573835#2 -854573835#1 854573834 1145551339 1145551342 1145551340#0 -461374128#1 -461374128#0 607275255#0 607275255#1 607275255#2 607275255#3"/>
   <vehicle id="vehicle-10" type="passenger" color="Yellow" depart="0.1" route="trip-10"/>

   <route id="trip-11" color="Magenta" edges="607211731 -607211731 -607211732#1 -607211732#0 461374129#0 854573842 504157827#1 32582302#9 854573837 1145551334#1 1145551334#2 1145551334#3 1145551334#4 1145551334#6 1145551334#8 32582473#7 707610716 211718004#1 -1010212879#1 358286575#1 358286575#2 358286575#3 358286575#4 -1107017584"/>
   <vehicle id="vehicle-11" type="passenger" color="Yellow" depart="0.11" route="trip-11"/>

   <route id="trip-12" color="Magenta" edges="610729420#2 -610729420#2 -610729420#1 283299745#6 283299745#8 283299745#10 283299745#11 43242731#3 608787756 608787750 608787747 608787793#1 608787793#2 608787793#3 608787793#4 608787793#6 608787793#7 608787793#9 608787793#11 608787793#12 608787793#13 608787793#15 608787793#16 608787793#17 608787771#0 608787771#1 608787771#2 608787771#3 608787771#4 608787771#5 32582473#1 32582473#2 32582473#3 32582473#4 32582473#5 32582473#7 707610715 707610713#0 707610713#1 707610713#3 707610713#5 707610713#6 707610713#7 707610713#8 707610713#9 707610713#11 707610713#12 707610713#13 707610713#14 707610713#15 707610713#16 707610713#17 707610713#18 707610713#19 1008072829#8 1008072829#10 1008072829#11 1008072829#12 1008072829#13 1008072829#14 1008072829#15 1008072829#16 1008072829#17 1008072829#18 1008072829#19 1008072829#21 1008072829#22 1008072829#23 1008072829#24 1008072829#25 1008072829#26 1008072829#27 -262844414#8 -262844414#7 -262844414#5 -262844414#4 -262844414#3 -262844414#2 -262844414#1 -262844414#0 -262844478#10 -262844478#9 -262844478#8 -262844478#6 -262844478#5 608519572 608558020"/>
   <vehicle id="vehicle-12" type="passenger" color="Yellow" depart="0.12" route="trip-12"/>

   <route id="trip-13" color="Magenta" edges="-693032892#1 693032892#1 693032892#2 693032892#3 693032892#5 693032892#6 -607275239#10 -854573835#2 -854573835#1 -213101340#4 -213101340#3 -213101340#2 -213101340#1 -213101340#0 -707610713#0 -707610715 -32582473#7 -32582473#6 -32582473#4 -32582473#3 -32582473#2 -32582473#1 32584862#10 32584862#11 32584862#12 32584862#13 32584862#14 32584862#15 32584862#16 234901525#0 234901525#1 234901525#2 234901525#4 234901525#5 234901525#7 234901525#9 234901525#10 234901525#12 234901525#13 234901525#14 234901525#15 234901525#16 234901525#17 234901525#18 608787756 608787750 608787747"/>
   <vehicle id="vehicle-13" type="passenger" color="Yellow" depart="0.13" route="trip-13"/>

   <route id="trip-14" color="Magenta" edges="-475301742#2 -475301742#1 -475301742#0 298026950#9 298026950#10 298026950#11 298026950#12 298026950#13 298026950#14 298026950#15 298027205#0 298027205#1 298027205#2 298027205#3 298027205#4 298027205#5 298027205#6 610729420#4"/>
   <vehicle id="vehicle-14" type="passenger" color="Yellow" depart="0.14" route="trip-14"/>

   <route id="trip-15" color="Magenta" edges="-693042934#0 -148350390#3 -148350390#2 -148350390#1 -148350390#0 -606893677 298026950#13 298026950#14 298026950#15 43242731#0 43242731#1 43242731#2 43242731#3 608787756 608787750 608787747 608787793#1 608787793#2 608787793#3 608787793#4 608787793#6 608787793#7 608787793#9 608787793#11 608787793#12 608787793#13 608787793#15 608787793#16 608787793#17 608787771#0 608787771#1 608787771#2 608787771#3 608787771#4 608787771#5 32582473#1 32582473#2 32582473#3 32582473#4 32582473#5 -1145551334#8 -1145551334#7 -1145551334#4 -1145551334#3 -1145551334#2 -1145551334#1 -1145551334#0 1145551335 1145551344 1145551336 1145551338#0 1145551338#0-AddedOffRampEdge 1145551338#1 136700452#5 136700452#6 136700452#7 34729945#0 34729945#1 34729945#2 706974721 210933722#4 -708710888#3 898030527"/>
   <vehicle id="vehicle-15" type="passenger" color="Yellow" depart="0.15" route="trip-15"/>

   <route id="trip-16" color="Magenta" edges="-607196686 -32582473#1 608787771#6 608787771#7 608787771#8 608787771#9 608787782#1 608787782#2 608787782#3 608787782#4 608787782#8 608787782#10 608787782#11 608787782#12 608787782#13 608787782#14 608787782#15 608787782#16 608787782#17"/>
   <vehicle id="vehicle-16" type="passenger" color="Yellow" depart="0.16" route="trip-16"/>

   <route id="trip-17" color="Magenta" edges="608507726#2 -608507726#2 -608507726#1 -608507726#0 -608507752#0 -608490942#4 -608490942#3 -608490942#2 -608490942#1 -608490942#0 -608480298#5 -608480298#4"/>
   <vehicle id="vehicle-17" type="passenger" color="Yellow" depart="0.17" route="trip-17"/>

   <route id="trip-18" color="Magenta" edges="553966319#0 553966319#1 553966319#2 553966319#3 33237040#2 33237040#3 33237040#4 33237040#6 33237040#7 33237040#8 33237040#9 33237040#10 -33237040#10"/>
   <vehicle id="vehicle-18" type="passenger" color="Yellow" depart="0.18" route="trip-18"/>

   <route id="trip-19" color="Magenta" edges="952337763 -608510940#0 -608507742#1 608507741 -608496491#2 -608496491#1 -608496491#0 -707610713#13 -707610713#12 -707610713#11 -707610713#9 -707610713#8 -707610713#7 -707610713#6 -707610713#5 -707610713#3 -707610713#2 -707610713#0 -707610715 -32582473#7 -1145551334#8 -1145551334#7 -1145551334#4 -1145551334#3 -1145551334#2 -1145551334#1 -1145551334#0 1145551340#0 -461374128#1 -504157832#3 -504157832#2 -504157832#1 -504157832#0 -461374127#0 461374127#0"/>
   <vehicle id="vehicle-19" type="passenger" color="Yellow" depart="0.19" route="trip-19"/>

   <route id="trip-20" color="Magenta" edges="-1096902152#2 1096902152#2 -832692421 -321568782#0 358286574#1 358286574#2 358286574#3 607522713 607247864#1 607247864#2"/>
   <vehicle id="vehicle-20" type="passenger" color="Yellow" depart="0.2" route="trip-20"/>

   <route id="trip-21" color="Magenta" edges="461374131 854573842 504157827#1 32582302#9 854573837 1145551334#1 1145551334#2 1145551334#3 1145551334#4 1145551334#6 1145551334#8 -32582473#6 -32582473#4 -32582473#3 -32582473#2 -32582473#1 32584862#10 32584862#11 32584862#12 32584862#13 32584862#14 32584862#15 32584862#16 234901525#0 234901525#1 234901525#2 234901525#4 234901525#5 234901525#7 234901525#9 234901525#10 234901525#12 234901525#13 234901525#14 234901525#15 234901525#16 234901525#17 234901525#18 -43242731#3 -43242731#2 -43242731#1 -43242731#0 -298026950#15 461374099#0 461374097#0 461374097#1 461374097#2 461374101#0"/>
   <vehicle id="vehicle-21" type="passenger" color="Yellow" depart="0.21" route="trip-21"/>

   <route id="trip-22" color="Magenta" edges="-899793182#1 899793182#1 899793182#2 264100095#16 262844414#2 262844414#3 262844414#4 262844414#5 262844414#7 621369582 1008072829#29 1008072829#30 1008072829#31 1008072829#32 1008072829#33 1008072829#33-AddedOffRampEdge 136700455#0 136700455#1 136700455#1-AddedOffRampEdge 136700455#2 136700452#7 136700452#1 136700452#2 136700452#3 136728958 290622134#0 290622186#0 290622186#1 290622186#2 290622186#3 -290622186#3"/>
   <vehicle id="vehicle-22" type="passenger" color="Yellow" depart="0.22" route="trip-22"/>

   <route id="trip-23" color="Magenta" edges="-461374129#0 461374129#0 854573842 504157827#1 32582302#9 854573837 1145551334#1 1145551334#2 708720614#0 708720614#1 708720614#2 708720614#3"/>
   <vehicle id="vehicle-23" type="passenger" color="Yellow" depart="0.23" route="trip-23"/>

   <route id="trip-24" color="Magenta" edges="-608479369 941766456#3 941766456#4 -358286575#4 -358286575#3 -358286575#2 -358286572 358286574#7 -608490901 -607247861#2"/>
   <vehicle id="vehicle-24" type="passenger" color="Yellow" depart="0.24" route="trip-24"/>

   <route id="trip-25" color="Magenta" edges="-553966319#2 -553966319#1 -553966319#0 358286771#0 553966314 608787793#1 608787793#2 608787793#3 608787793#4 608787793#6 608787793#7 608787793#9 608787793#11 608787793#12 608787793#13 608787793#15 608787793#16 608787793#17 608787771#0 608787771#1 608787771#2 608787771#3 608787771#4 608787771#5 32582473#1 32582473#2 32582473#3 32582473#4 32582473#5 32582473#7 707610715 707610713#0 707610713#1 707610713#3 707610713#5 707610713#6 707610713#7 707610713#8 707610713#9 707610713#11 707610713#12 707610713#13 608496491#0 608496491#1 608496491#2 608496491#3 608507742#1 608510940#0 608510940#1 832691876#0 832691876#1"/>
   <vehicle id="vehicle-25" type="passenger" color="Yellow" depart="0.25" route="trip-25"/>

   <route id="trip-26" color="Magenta" edges="-608490909 608480297#6 608480297#7 608480297#8 608480297#9 -560588400#3 -560588400#2 -560588400#1 -560588400#0 -358286575#3 -358286575#2 -358286575#1 -358286575#0 685610902#5 685610902#6 707610713#0 213101340#0 213101340#1 213101340#2 213101340#3 213101340#4 854573835#0 854573835#2 607275239#10 607275239#11 -693032892#5 -693032892#3 -693032892#2 -489319485#7 -489319485#6"/>
   <vehicle id="vehicle-26" type="passenger" color="Yellow" depart="0.26" route="trip-26"/>

   <route id="trip-27" color="Magenta" edges="298027205#1 298027205#2 298027205#3 298027205#4 298027205#5 298027205#6 -610729420#3 -610729420#2 -610729420#1 -610729420#0 -358286575#5 -358286575#4 -358286575#3 -358286575#2 -358286572 -358286574#6 -358286574#5 -358286574#4 607522713 607247864#1"/>
   <vehicle id="vehicle-27" type="passenger" color="Yellow" depart="0.27" route="trip-27"/>

   <route id="trip-28" color="Magenta" edges="898258047 -898258047 1008072829#13 1008072829#14 1008072829#15 1008072829#16 1008072829#17 1008072829#18 1008072829#19 1008072829#21 1008072829#22 1008072829#23 1008072829#24 1008072829#25 1008072829#26 1008072829#27 -262844414#8 -262844414#7 -262844414#5 -262844414#4 -262844414#3 -262844414#2 -262844414#1 -1070136556#3 -1070136556#2 608519575 -608519575"/>
   <vehicle id="vehicle-28" type="passenger" color="Yellow" depart="0.28" route="trip-28"/>

   <route id="trip-29" color="Magenta" edges="899793182#2 264100095#16 262844414#2 262844414#3 262844414#4 262844414#5 262844414#7 621369582 1008072829#29 1008072829#30 1008072829#31 1008072829#32 1008072829#33 1008072829#33-AddedOffRampEdge 136700455#0 136700455#1 136700455#1-AddedOffRampEdge 136700455#2 136700452#7 136700452#1 136700452#2 136700452#3 136728958 290622134#0 290622186#0 1086581329#1 213103303#0 213103303#1 213103303#2 213103303#3 854573833 1145551335 1145551344 1145551337 854573835#0 854573835#2 -854573835#2 -854573835#1"/>
   <vehicle id="vehicle-29" type="passenger" color="Yellow" depart="0.29" route="trip-29"/>

   <route id="trip-30" color="Magenta" edges="358286771#0 553966314 608787793#1 608787793#2 608787793#3 608787793#4 608787793#6 608787793#7 608787793#9 608787793#11 608787793#12 608787793#13 608787793#15 608787793#16 608787793#17 608787771#0 608787771#1 608787771#2 608787771#3 608787771#4 608787771#5 608787771#6 608787771#7 608787771#8 608787771#9 608787782#1 608787782#2 608787782#3 608787782#4 32582302#1 32582302#2 -607211735#4 -607211735#3 607211733 461374127#5 461374129#0"/>
   <vehicle id="vehicle-30" type="passenger" color="Yellow" depart="0.3" route="trip-30"/>

   <route id="trip-31" color="Magenta" edges="-707569133#3 707569133#3 1008072829#2 1008072829#3 1008072829#4 1008072829#5 1008072829#6 1008072829#8 1008072829#10 1008072829#11 1008072829#12 1008072829#13 1008072829#14 1008072829#15 1008072829#16 1008072829#17 1008072829#18 1008072829#19 1008072829#21 1008072829#22 1008072829#23 1008072829#24 1008072829#25 1008072829#26 1008072829#27 1008072829#28 1008072829#29 1008072829#30 1008072829#31 1008072829#32 1008072829#33 1008072829#33-AddedOffRampEdge 136700455#0 136700455#1 136700455#1-AddedOffRampEdge 136700455#2 136700452#7 34729945#0 34729945#1 34729945#2 706974721 210933722#4 210933722#5 -262844527#6 -262844527#5 262844527#5"/>
   <vehicle id="vehicle-31" type="passenger" color="Yellow" depart="0.31" route="trip-31"/>

   <route id="trip-32" color="Magenta" edges="898035958 -898035958 -832655668#0 489319477#2 -262844399#1 -262844399#0 -32575968#11 -32575968#10 -32575968#8 -32575968#7 -32575968#6 -32575968#4 -32575968#3 -32575968#2 -32575968#1 -32575968#0 136700455#1 136700455#1-AddedOffRampEdge 136700455#2 136700452#7 136700452#1 136700452#2 136700452#3 136700452#4 136700452#5 136700459#0 136700459#1 136700459#2 136700459#3 136700451#1 136700451#2 136700451#3 136700451#4 136700451#5 136700451#6 136700451#7 136700451#8 136700451#9 136700451#10 136700451#11 136700451#12 136700451#13 136700451#14 136700451#15 136700451#16 136700451#17 136700451#18 136700451#19 136700451#20 136700451#21 136700451#22 136700451#23 136700451#25 136700451#26 136700451#27 136700451#28 136700451#29 608507725"/>
   <vehicle id="vehicle-32" type="passenger" color="Yellow" depart="0.32" route="trip-32"/>

   <route id="trip-33" color="Magenta" edges="607211738 -607211738 608787782#12 608787782#13 607211743#4 607211743#5 607211743#7 607211743#11 607211743#12 607211743#13 607211743#14 43243019 32584862#1 32584862#2 32584862#3 32584862#4 32584862#5 32584862#6 32584862#7 32584862#8 32584862#9 32582473#1 32582473#2 32582473#3 32582473#4 32582473#5 32582473#7 707610715 707610713#0 707610713#1 707610713#3 -607247864#7 607247863#0 607247863#1"/>
   <vehicle id="vehicle-33" type="passenger" color="Yellow" depart="0.33" route="trip-33"/>

   <route id="trip-34" color="Magenta" edges="607211731 -607211731 -607211732#1 -607211732#0 461374129#0 854573842 504157827#1 32582302#9 854573837 1145551334#1 1145551334#2 1145551334#3 1145551334#4 1145551334#6 1145551334#8 32582473#7 707610715 707610713#0 707610713#1 707610713#3 707610713#5 707610713#6 707610713#7 707610713#8 707610713#9 707610713#11 707610713#12 707610713#13 707610713#14 707610713#15 707610713#16 707610713#17 707610713#18 707610713#19 32576379#1 32576379#3 32576379#4 32576379#5 32576379#6 32576379#7 32576379#8 32576379#9 32576379#10 32576379#12 -262844530#6 -262844530#5 -262844530#4 -262844530#3 -262844530#2 262844530#2"/>
   <vehicle id="vehicle-34" type="passenger" color="Yellow" depart="0.34" route="trip-34"/>

   <route id="trip-35" color="Magenta" edges="897897909 -290622185#0 290622186#6 -607211708#0 213103303#1 213103303#2 213103303#3 854573833 1145551334#0 1145551334#1 1145551334#2 1145551334#3 1145551334#4 1145551334#6 1145551334#8 32582473#7 707610715 707610713#0 707610713#1 707610713#3 707610713#5 707610713#6 707610713#7 707610713#8 707610713#9 707610713#11 707610713#12 707610713#13 707610713#14 707610713#15 707610713#16 707610713#17 707610713#18 707610713#19 32576379#1 32576379#3 32576379#4 32576379#5 32576379#6 32576379#7 32576379#8 32576379#9 32576379#10 32576379#12 -262844530#6 -262844530#5 -262844530#4 -262844530#3 -608523458"/>
   <vehicle id="vehicle-35" type="passenger" color="Yellow" depart="0.35" route="trip-35"/>

   <route id="trip-36" color="Magenta" edges="-358286575#5 -358286575#4 -358286575#3 -358286575#2 -358286575#1 -358286575#0 685610902#5 685610902#6 -707610715 -32582473#7 -1145551334#8 -1145551334#7 -1145551334#4 -1145551334#3 -1145551334#2 -1145551334#1 -1145551334#0 1145551340#0 -461374128#1 -461374128#0 607275255#0 -607275255#0"/>
   <vehicle id="vehicle-36" type="passenger" color="Yellow" depart="0.36" route="trip-36"/>

   <route id="trip-37" color="Magenta" edges="610729420#2 -610729420#2 -610729420#1 283299745#6 283299745#8 283299745#10 283299745#11 43242731#3 608787756 608787750 608787747 608787793#1 608787793#2 608787793#3 608787793#4 608787793#6 608787793#7 608787793#9 608787793#11 608787793#12 608787793#13 608787793#15 608787793#16 608787793#17 608787771#0 608787771#1 608787771#2 608787771#3 608787771#4 608787771#5 32582473#1 32582473#2 32582473#3 32582473#4 32582473#5 32582473#7 707610715 707610713#0 707610713#1 707610713#3 707610713#5 707610713#6 707610713#7 707610713#8 707610713#9 707610713#11 707610713#12 707610713#13 608496491#0 608496491#1 608496491#2 608496491#3 608507742#1 608510940#0 -952337763"/>
   <vehicle id="vehicle-37" type="passenger" color="Yellow" depart="0.37" route="trip-37"/>

   <route id="trip-38" color="Magenta" edges="608787771#0 608787771#1 608787771#2 32584862#13 32584862#14 32584862#15 32584862#16 234901525#0 234901525#1 234901525#2 234901525#4 234901525#5 234901525#7 234901525#9 234901525#10 234901525#12 234901525#13 234901525#14 234901525#15 234901525#16 234901525#17 234901525#18 608787756 608787750 608787747 -553966317 -358286771#0 -358286575#5"/>
   <vehicle id="vehicle-38" type="passenger" color="Yellow" depart="0.38" route="trip-38"/>

   <route id="trip-39" color="Magenta" edges="-607211705#0 -290622186#1 1086581329#1 213103303#0 213103303#1 213103303#2 213103303#3 854573833 1145551334#0 1145551334#1 1145551334#2 1145551334#3 1145551334#4 1145551334#6 1145551334#8 -32582473#6 -32582473#4 -32582473#3 -32582473#2 -32582473#1 32584862#10 32584862#11 32584862#12 32584862#13 32584862#14 32584862#15 32584862#16 234901525#0 234901525#1 234901525#2 234901525#4 234901525#5 283299744#1 358286771#3"/>
   <vehicle id="vehicle-39" type="passenger" color="Yellow" depart="0.39" route="trip-39"/>

   <route id="trip-40" color="Magenta" edges="-832724194 832724194 -148351286#0 298026950#14 298026950#15 298027205#0 298027205#1 298027205#2 298027205#3 608490911"/>
   <vehicle id="vehicle-40" type="passenger" color="Yellow" depart="0.4" route="trip-40"/>

   <route id="trip-41" color="Magenta" edges="32582302#6 32582302#7 32582302#8 32582302#9 32582302#11 1145551335 1145551344 1145551337 854573835#0 854573835#2 607275239#10 607275239#11 -693032892#5 897936933 -897936933"/>
   <vehicle id="vehicle-41" type="passenger" color="Yellow" depart="0.41" route="trip-41"/>

   <route id="trip-42" color="Magenta" edges="607247868#2 607247868#3 607247868#4 608787793#17 608787771#0 608787771#1 608787771#2 608787771#3 608787771#4 608787771#5 32582473#1 32582473#2 32582473#3 32582473#4 32582473#5 32582473#7 707610715 707610713#0 707610713#1 707610713#3 707610713#5 707610713#6 707610713#7 707610713#8 707610713#9 707610713#11 707610713#12 707610713#13 707610713#14 707610713#15 707610713#16 707610713#17 707610713#18 707610713#19 32576379#1 32576379#3 32576379#4 470172299#0 608507777#0 608507777#1 608507777#2 608507777#3 608507776#2 -608507776#2"/>
   <vehicle id="vehicle-42" type="passenger" color="Yellow" depart="0.42" route="trip-42"/>

   <route id="trip-43" color="Magenta" edges="-461374128#1 461374128#1 854573837 1145551334#1 1145551334#2 1145551334#3 1145551334#4 1145551334#6 1145551334#8 -32582473#6 -32582473#4 -32582473#3 -32582473#2 -32582473#1 32584862#10 32584862#11 32584862#12 32584862#13 32584862#14 32584862#15 32584862#16 234901525#0 234901525#1 234901525#2 234901525#4 234901525#5 234901525#7 234901525#9 234901525#10 234901525#12 234901525#13 234901525#14 234901525#15 234901525#16 234901525#17 234901525#18 -43242731#3 -43242731#2 -43242731#1 -43242731#0 -298026950#15 -298026950#14 -298026950#13 -298026950#12 -298026950#11 -298026950#10 -298026950#9 475301742#0 475301742#1 475301742#2 475301742#4 360216645#0 360216645#1 608788514#1 -608788514#1"/>
   <vehicle id="vehicle-43" type="passenger" color="Yellow" depart="0.43" route="trip-43"/>

   <route id="trip-44" color="Magenta" edges="-608519582 -608519583#0 -608519588#2 -608519588#0 -608519587#1 -608519587#0 1008072829#27 1008072829#28 1008072829#29 1008072829#30 1008072829#31 1008072829#32 1008072829#33 1008072829#33-AddedOffRampEdge 136700455#0 136700455#1 136700455#1-AddedOffRampEdge 136700455#2 136700452#7 136700452#1 136700452#2 136700452#3 136728958 290622134#0 290622186#0 1086581329#1 213103303#0 213103303#1 213103303#2 213103303#3 854573836 -461374128#1"/>
   <vehicle id="vehicle-44" type="passenger" color="Yellow" depart="0.44" route="trip-44"/>

   <route id="trip-45" color="Magenta" edges="-290622186#2 -290622186#1 1086581329#1 213103303#0 213103303#1 213103303#2 213103303#3 854573833 1145551334#0 1145551334#1 1145551334#2 1145551334#3 1145551334#4 1145551334#6 1145551334#8 32582473#7 707610715 707610713#0 707610713#1 707610713#3 -607247864#7 -607247864#6 -607247864#5 -607247864#4 -607247864#2"/>
   <vehicle id="vehicle-45" type="passenger" color="Yellow" depart="0.45" route="trip-45"/>

   <route id="trip-46" color="Magenta" edges="832726500#2 -832726503 -832726500#1 -832724196#3 -832724196#2 -832724196#1 -832724196#0 -148351286#1 -148351286#0 298026950#14 298026950#15 43242731#0 43242731#1 43242731#2 43242731#3 608787756 608787750 608787747 608787793#1 608787793#2 608787793#3 608787793#4 608787793#6 608787793#7 608787793#9 608787793#11 608787793#12 608787793#13 608787793#15 608787793#16 608787793#17 608787771#0 608787771#1 608787771#2 608787771#3 608787771#4 608787771#5 608787771#6 608787771#7 321568777#0 489319494#0 489319494#1"/>
   <vehicle id="vehicle-46" type="passenger" color="Yellow" depart="0.46" route="trip-46"/>

   <route id="trip-47" color="Magenta" edges="608507755#2 608490939#3 608490939#4 608490939#5 -707610713#12 -707610713#11 -707610713#9 -707610713#8 -707610713#7 -707610713#6 -707610713#5 -707610713#3 -707610713#2 -707610713#0 -707610715 -32582473#7 -32582473#6 -32582473#4 -32582473#3 -32582473#2 -32582473#1 32584862#10 32584862#11 32584862#12 32584862#13 32584862#14 32584862#15 32584862#16 234901525#0 234901525#1 234901525#2 234901525#4 234901525#5 234901525#7 234901525#9 234901525#10 234901525#12 234901525#13 234901525#14 234901525#15 234901525#16 234901525#17 234901525#18 833674289#0"/>
   <vehicle id="vehicle-47" type="passenger" color="Yellow" depart="0.47" route="trip-47"/>

   <route id="trip-48" color="Magenta" edges="-290622185#0 290622186#6 -607211708#0 213103303#1 213103303#2 213103303#3 854573833 1145551334#0 1145551334#1 1145551334#2 1145551334#3 1145551334#4 1145551334#6 1145551334#8 -32582473#6 -32582473#4 -32582473#3 -32582473#2 -32582473#1 32584862#10 32584862#11 32584862#12 32584862#13 32584862#14 32584862#15 32584862#16 234901525#0 234901525#1 234901525#2 234901525#4 234901525#5 234901525#7 234901525#9 234901525#10 234901525#12 234901525#13 234901525#14 234901525#15 234901525#16 234901525#17 234901525#18 -43242731#3 -283299745#11 -283299745#10 -283299745#9 -283299745#6 -283299745#5 -283299745#4 -283299745#3"/>
   <vehicle id="vehicle-48" type="passenger" color="Yellow" depart="0.48" route="trip-48"/>

   <route id="trip-49" color="Magenta" edges="-489319495#1 -489319495#0 -213100533#2 -213100533#1 1145551334#8 32582473#7 707610715 707610713#0 213101340#0 213101340#1 607275239#1 -607275233"/>
   <vehicle id="vehicle-49" type="passenger" color="Yellow" depart="0.49" route="trip-49"/>

   <route id="trip-50" color="Magenta" edges="707610713#16 -707610713#16 -707610713#15 -707610713#14 -707610713#13 -707610713#12 -707610713#11 -707610713#9 -707610713#8 -707610713#7 -707610713#6 -707610713#5 -707610713#3 -707610713#2 -707610713#0 -707610715 -32582473#7 -32582473#6 -32582473#4 -32582473#3 -32582473#2 -32582473#1 608787771#6 608787771#7 608787771#8 608787771#9 608787782#1 608787782#2 608787782#3 608787782#4 32582302#1 32582302#2 -607211735#4 -607211735#3"/>
   <vehicle id="vehicle-50" type="passenger" color="Yellow" depart="0.5" route="trip-50"/>
