<?xml version="1.0" encoding="UTF-8"?>

<!-- generated on 2023-03-19 22:00:57 by Eclipse SUMO netconvert Version 1.16.0
<configuration xmlns:xsi="http://www.w3.org/2001/XMLSchema-instance" xsi:noNamespaceSchemaLocation="http://sumo.dlr.de/xsd/netconvertConfiguration.xsd">

    <input>
        <type-files value="D:\OMNetpp\map\Sumo\data\typemap\osmNetconvert.typ.xml"/>
        <osm-files value="caotoc.osm.xml"/>
    </input>

    <output>
        <output-file value="caotoc.net.xml"/>
    </output>

    <projection>
        <proj.utm value="true"/>
    </projection>

    <processing>
        <geometry.remove value="true"/>
        <roundabouts.guess value="true"/>
    </processing>

    <tls_building>
        <tls.discard-simple value="true"/>
        <tls.join value="true"/>
        <tls.guess-signals value="true"/>
    </tls_building>

    <ramp_guessing>
        <ramps.guess value="true"/>
    </ramp_guessing>

    <edge_removal>
        <remove-edges.by-vclass value="rail,rail_electric,bicycle,pedestrian"/>
        <remove-edges.by-type value="rail,rail_urban,rail_electric,railway.tram,railway.subway"/>
    </edge_removal>

    <junctions>
        <no-internal-links value="true"/>
        <junctions.join value="true"/>
    </junctions>

</configuration>
-->

<net version="1.16" junctionCornerDetail="5" limitTurnSpeed="5.50" xmlns:xsi="http://www.w3.org/2001/XMLSchema-instance" xsi:noNamespaceSchemaLocation="http://sumo.dlr.de/xsd/net_file.xsd">

    <location netOffset="-662245.88,-1177245.89" convBoundary="0.00,0.00,14934.49,8038.43" origBoundary="106.474411,10.640602,106.620760,10.752139" projParameter="+proj=utm +zone=48 +ellps=WGS84 +datum=WGS84 +units=m +no_defs"/>

    <type id="highway.bridleway" priority="1" numLanes="1" speed="2.78" allow="pedestrian" oneway="1" width="2.00"/>
    <type id="highway.bus_guideway" priority="1" numLanes="1" speed="27.78" allow="bus" oneway="1"/>
    <type id="highway.cycleway" priority="1" numLanes="1" speed="5.56" allow="bicycle" oneway="0" width="1.00"/>
    <type id="highway.footway" priority="1" numLanes="1" speed="2.78" allow="pedestrian" oneway="1" width="2.00"/>
    <type id="highway.ford" priority="1" numLanes="1" speed="2.78" allow="army" oneway="0"/>
    <type id="highway.living_street" priority="2" numLanes="1" speed="2.78" disallow="tram rail_urban rail rail_electric rail_fast ship" oneway="0"/>
    <type id="highway.motorway" priority="14" numLanes="2" speed="39.44" allow="private emergency authority army vip passenger hov taxi bus coach delivery truck trailer motorcycle evehicle custom1 custom2" oneway="1"/>
    <type id="highway.motorway_link" priority="9" numLanes="1" speed="22.22" allow="private emergency authority army vip passenger hov taxi bus coach delivery truck trailer motorcycle evehicle custom1 custom2" oneway="1"/>
    <type id="highway.path" priority="1" numLanes="1" speed="5.56" allow="pedestrian bicycle" oneway="0" width="2.00"/>
    <type id="highway.pedestrian" priority="1" numLanes="1" speed="2.78" allow="pedestrian" oneway="1" width="2.00"/>
    <type id="highway.primary" priority="12" numLanes="2" speed="27.78" disallow="tram rail_urban rail rail_electric rail_fast ship" oneway="0"/>
    <type id="highway.primary_link" priority="7" numLanes="1" speed="22.22" disallow="tram rail_urban rail rail_electric rail_fast ship" oneway="0"/>
    <type id="highway.raceway" priority="15" numLanes="2" speed="83.33" allow="vip" oneway="0"/>
    <type id="highway.residential" priority="3" numLanes="1" speed="13.89" disallow="tram rail_urban rail rail_electric rail_fast ship" oneway="0"/>
    <type id="highway.secondary" priority="11" numLanes="1" speed="27.78" disallow="tram rail_urban rail rail_electric rail_fast ship" oneway="0"/>
    <type id="highway.secondary_link" priority="6" numLanes="1" speed="22.22" disallow="tram rail_urban rail rail_electric rail_fast ship" oneway="0"/>
    <type id="highway.service" priority="1" numLanes="1" speed="5.56" allow="pedestrian delivery bicycle" oneway="0"/>
    <type id="highway.stairs" priority="1" numLanes="1" speed="1.39" allow="pedestrian" oneway="1" width="2.00"/>
    <type id="highway.step" priority="1" numLanes="1" speed="1.39" allow="pedestrian" oneway="1" width="2.00"/>
    <type id="highway.steps" priority="1" numLanes="1" speed="1.39" allow="pedestrian" oneway="1" width="2.00"/>
    <type id="highway.tertiary" priority="10" numLanes="1" speed="22.22" disallow="tram rail_urban rail rail_electric rail_fast ship" oneway="0"/>
    <type id="highway.tertiary_link" priority="5" numLanes="1" speed="22.22" disallow="tram rail_urban rail rail_electric rail_fast ship" oneway="0"/>
    <type id="highway.track" priority="1" numLanes="1" speed="5.56" allow="pedestrian motorcycle moped bicycle" oneway="0"/>
    <type id="highway.trunk" priority="13" numLanes="2" speed="27.78" disallow="pedestrian bicycle tram rail_urban rail rail_electric rail_fast ship" oneway="0"/>
    <type id="highway.trunk_link" priority="8" numLanes="1" speed="22.22" disallow="pedestrian bicycle tram rail_urban rail rail_electric rail_fast ship" oneway="0"/>
    <type id="highway.unclassified" priority="4" numLanes="1" speed="13.89" disallow="tram rail_urban rail rail_electric rail_fast ship" oneway="0"/>
    <type id="highway.unsurfaced" priority="1" numLanes="1" speed="8.33" disallow="tram rail_urban rail rail_electric rail_fast ship" oneway="0"/>
    <type id="railway.highspeed" priority="21" numLanes="1" speed="69.44" allow="rail_fast" oneway="1"/>
    <type id="railway.light_rail" priority="19" numLanes="1" speed="27.78" allow="rail_urban" oneway="1"/>
    <type id="railway.preserved" priority="16" numLanes="1" speed="27.78" allow="rail" oneway="1"/>
    <type id="railway.rail" priority="20" numLanes="1" speed="44.44" allow="rail" oneway="1"/>
    <type id="railway.subway" priority="18" numLanes="1" speed="27.78" allow="rail_urban" oneway="1"/>
    <type id="railway.tram" priority="17" numLanes="1" speed="13.89" allow="tram" oneway="1"/>

    <edge id="-1010212879#1" from="cluster_9320885458_9320885459_9320885460_9320885461_#2more" to="5870006038" priority="4" type="highway.unclassified" shape="9169.54,4271.95 9166.38,4262.06 9164.84,4257.22 9155.57,4239.51 9145.93,4222.29 9141.91,4210.34">
        <lane id="-1010212879#1_0" index="0" disallow="tram rail_urban rail rail_electric rail_fast ship" speed="13.89" length="76.97" shape="9164.48,4261.36 9163.36,4257.84 9154.16,4240.27 9144.46,4222.94 9141.98,4215.56"/>
    </edge>
    <edge id="-1028103911" from="9476330785" to="9476330784" priority="7" type="highway.primary_link">
        <lane id="-1028103911_0" index="0" disallow="tram rail_urban rail rail_electric rail_fast ship" speed="22.22" length="12.97" shape="12601.11,4983.43 12601.05,4983.63"/>
    </edge>
    <edge id="-1029264928" from="9489365631" to="8344929818" priority="1" type="highway.service" shape="10516.36,5354.10 10510.90,5351.44 10495.03,5346.98 10473.17,5341.08 10455.54,5335.73 10441.79,5333.38 10428.93,5329.10 10413.94,5324.82 10400.00,5322.63 10385.54,5319.93 10365.27,5312.99 10351.00,5309.05 10346.95,5304.32 10354.96,5269.00">
        <lane id="-1029264928_0" index="0" allow="pedestrian delivery bicycle" speed="5.56" length="214.21" shape="10515.66,5355.54 10510.33,5352.94 10494.61,5348.52 10472.73,5342.62 10455.17,5337.29 10441.40,5334.93 10428.45,5330.63 10413.59,5326.38 10399.73,5324.21 10385.14,5321.48 10364.80,5314.52 10350.10,5310.47 10345.21,5304.75 10352.49,5272.69"/>
    </edge>
    <edge id="-1037121121#0" from="6538988650" to="4986046118" priority="10" type="highway.tertiary" shape="5900.58,4566.40 5920.49,4566.17 6002.81,4564.35 6086.64,4577.73">
        <lane id="-1037121121#0_0" index="0" disallow="tram rail_urban rail rail_electric rail_fast ship" speed="22.22" length="187.14" shape="5908.34,4564.71 5920.47,4564.57 6002.92,4562.74 6081.75,4575.33"/>
    </edge>
    <edge id="-1037121121#1" from="8813720495" to="6538988650" priority="10" type="highway.tertiary">
        <lane id="-1037121121#1_0" index="0" disallow="tram rail_urban rail rail_electric rail_fast ship" speed="22.22" length="47.14" shape="5860.46,4563.53 5894.04,4564.59"/>
    </edge>
    <edge id="-1037121121#2" from="366467681" to="8813720495" priority="10" type="highway.tertiary">
        <lane id="-1037121121#2_0" index="0" disallow="tram rail_urban rail rail_electric rail_fast ship" speed="22.22" length="84.99" shape="5775.50,4562.78 5846.09,4563.26"/>
    </edge>
    <edge id="-1037121121#3" from="366369952" to="366467681" priority="10" type="highway.tertiary">
        <lane id="-1037121121#3_0" index="0" disallow="tram rail_urban rail rail_electric rail_fast ship" speed="22.22" length="47.89" shape="5728.02,4559.73 5760.98,4562.17"/>
    </edge>
    <edge id="-1037121121#4" from="7782096028" to="366369952" priority="10" type="highway.tertiary">
        <lane id="-1037121121#4_0" index="0" disallow="tram rail_urban rail rail_electric rail_fast ship" speed="22.22" length="37.86" shape="5688.89,4556.36 5713.65,4558.56"/>
    </edge>
    <edge id="-1042577120#0" from="5764885551" to="5764886657" priority="3" type="highway.residential" shape="9023.44,2837.16 9016.72,2804.96 9004.93,2756.21">
        <lane id="-1042577120#0_0" index="0" disallow="tram rail_urban rail rail_electric rail_fast ship" speed="13.89" length="83.05" shape="9020.46,2830.72 9015.16,2805.31 9005.72,2766.26"/>
    </edge>
    <edge id="-1042577120#1" from="5764886653" to="5764885551" priority="3" type="highway.residential" shape="9043.18,2910.92 9036.32,2874.73 9027.31,2855.74 9023.44,2837.16">
        <lane id="-1042577120#1_0" index="0" disallow="tram rail_urban rail rail_electric rail_fast ship" speed="13.89" length="76.84" shape="9040.50,2905.38 9034.79,2875.23 9025.79,2856.25 9023.41,2844.85"/>
    </edge>
    <edge id="-1051031295" from="9658505865" to="9658505871" priority="3" type="highway.residential" shape="8741.90,3561.14 8723.73,3556.81 8710.84,3553.54 8685.95,3541.76 8656.67,3530.97 8638.22,3522.71 8626.17,3516.83">
        <lane id="-1051031295_0" index="0" disallow="tram rail_urban rail rail_electric rail_fast ship" speed="13.89" length="124.34" shape="8741.53,3562.70 8723.35,3558.37 8710.29,3555.05 8685.33,3543.23 8656.06,3532.45 8637.54,3524.16 8631.25,3521.09"/>
    </edge>
    <edge id="-1051267613" from="9660696836" to="9660696837" priority="3" type="highway.residential">
        <lane id="-1051267613_0" index="0" disallow="tram rail_urban rail rail_electric rail_fast ship" speed="13.89" length="49.04" shape="5473.13,3859.91 5431.34,3859.20"/>
    </edge>
    <edge id="-1051780812" from="5765091754" to="9665400034" priority="3" type="highway.residential">
        <lane id="-1051780812_0" index="0" disallow="tram rail_urban rail rail_electric rail_fast ship" speed="13.89" length="18.33" shape="11586.20,3128.14 11584.85,3129.17"/>
    </edge>
    <edge id="-1051780813" from="9665400035" to="5765004527" priority="3" type="highway.residential" shape="11488.96,3414.79 11477.50,3418.82 11461.77,3423.10 11448.41,3424.64 11435.35,3425.45 11425.38,3423.79 11413.06,3422.57 11403.09,3420.77 11392.99,3417.36 11385.80,3417.47 11377.33,3418.91">
        <lane id="-1051780813_0" index="0" disallow="tram rail_urban rail rail_electric rail_fast ship" speed="13.89" length="114.05" shape="11489.49,3416.30 11477.97,3420.34 11462.08,3424.68 11448.55,3426.23 11435.27,3427.05 11425.17,3425.38 11412.84,3424.15 11402.69,3422.32 11392.74,3418.97 11385.95,3419.07 11385.32,3419.18"/>
    </edge>
    <edge id="-1052663270" from="7782281888" to="9674102897" priority="1" type="highway.service">
        <lane id="-1052663270_0" index="0" allow="pedestrian delivery bicycle" speed="5.56" length="72.55" shape="6859.94,5484.37 6867.42,5551.71"/>
    </edge>
    <edge id="-1055282486" from="8360191550" to="9696786880" priority="3" type="highway.residential">
        <lane id="-1055282486_0" index="0" disallow="tram rail_urban rail rail_electric rail_fast ship" speed="13.89" length="32.60" shape="12239.37,3719.30 12250.04,3697.47"/>
    </edge>
    <edge id="-1055696135" from="9700476671" to="cluster_9700479590_9700479591" priority="1" type="highway.service" shape="12579.16,4292.46 12571.70,4363.08 12564.35,4423.38">
        <lane id="-1055696135_0" index="0" allow="pedestrian delivery bicycle" speed="5.56" length="132.45" shape="12580.75,4292.63 12573.29,4363.26 12566.48,4419.11"/>
    </edge>
    <edge id="-1057606525" from="9717957855" to="8367314287" priority="3" type="highway.residential" shape="6012.66,5411.45 5955.35,5400.81 5930.88,5393.68 5957.09,5317.93 5964.85,5294.35 5966.60,5291.25 5969.70,5290.72 5978.49,5294.12 6020.83,5306.14 6118.82,5329.69">
        <lane id="-1057606525_0" index="0" disallow="tram rail_urban rail rail_electric rail_fast ship" speed="13.89" length="349.68" shape="6012.37,5413.02 5954.98,5402.37 5928.82,5394.75 5955.58,5317.41 5963.38,5293.70 5965.59,5289.80 5969.87,5289.07 5979.00,5292.60 6021.24,5304.59 6111.65,5326.32"/>
    </edge>
    <edge id="-1057895264" from="9720559575" to="7782282010" priority="3" type="highway.residential" shape="7081.30,5202.55 7062.34,5210.40 7055.79,5218.01 7050.80,5226.15 7044.26,5235.64 7040.20,5242.37">
        <lane id="-1057895264_0" index="0" disallow="tram rail_urban rail rail_electric rail_fast ship" speed="13.89" length="59.50" shape="7081.91,5204.03 7063.30,5211.73 7057.09,5218.95 7052.15,5227.02 7045.61,5236.49"/>
    </edge>
    <edge id="-1058768566" from="8344848654" to="8344940667" priority="1" type="highway.service" shape="11452.86,4673.04 11439.23,4668.01 11428.98,4665.34 11414.61,4663.22 11394.65,4665.45 11367.06,4665.90 11340.65,4664.89 11315.99,4667.67 11302.18,4672.27">
        <lane id="-1058768566_0" index="0" allow="pedestrian delivery bicycle" speed="5.56" length="153.12" shape="11445.31,4671.96 11438.75,4669.54 11428.66,4666.91 11414.58,4664.83 11394.75,4667.05 11367.04,4667.50 11340.71,4666.49 11316.34,4669.24 11311.91,4670.71"/>
    </edge>
    <edge id="-1059784303" from="8814210880" to="9736996716" priority="3" type="highway.residential" shape="6475.52,4594.02 6475.72,4583.38 6475.93,4571.87 6475.68,4562.83 6475.84,4554.38">
        <lane id="-1059784303_0" index="0" disallow="tram rail_urban rail rail_electric rail_fast ship" speed="13.89" length="39.65" shape="6474.07,4585.89 6474.12,4583.36 6474.33,4571.88 6474.08,4562.84 6474.24,4554.35"/>
    </edge>
    <edge id="-1059784306" from="9736996715" to="4986046123" priority="3" type="highway.residential">
        <lane id="-1059784306_0" index="0" disallow="tram rail_urban rail rail_electric rail_fast ship" speed="13.89" length="25.07" shape="6678.81,4489.38 6678.55,4471.58"/>
    </edge>
    <edge id="-1060548123" from="9743808154" to="3081160524" priority="3" type="highway.residential">
        <lane id="-1060548123_0" index="0" disallow="tram rail_urban rail rail_electric rail_fast ship" speed="13.89" length="37.66" shape="10560.20,5499.03 10574.75,5503.10"/>
    </edge>
    <edge id="-1061638723" from="9753853876" to="9753853877" priority="3" type="highway.residential">
        <lane id="-1061638723_0" index="0" disallow="tram rail_urban rail rail_electric rail_fast ship" speed="13.89" length="34.44" shape="10089.57,2589.78 10078.35,2603.83"/>
    </edge>
    <edge id="-1070136556#0" from="cluster_5765066792_8360881348" to="5765088630" priority="4" type="highway.unclassified" shape="12585.84,3845.00 12588.61,3851.30 12593.92,3863.02 12639.07,3935.39 12660.01,3967.47 12682.03,3987.98 12728.15,4021.05 12745.96,4031.92 12753.71,4037.50 12757.55,4044.77">
        <lane id="-1070136556#0_0" index="0" disallow="tram rail_urban rail rail_electric rail_fast ship" speed="13.89" length="272.66" shape="12589.28,3848.85 12590.07,3850.65 12595.33,3862.27 12640.41,3934.53 12661.25,3966.43 12683.05,3986.74 12729.03,4019.72 12746.84,4030.58 12754.94,4036.42 12755.30,4037.09"/>
    </edge>
    <edge id="-1070136556#2" from="5765088626" to="cluster_5765066792_8360881348" priority="4" type="highway.unclassified" shape="12546.28,3700.93 12546.20,3726.19 12553.08,3756.51 12582.78,3838.01">
        <lane id="-1070136556#2_0" index="0" disallow="tram rail_urban rail rail_electric rail_fast ship" speed="13.89" length="146.90" shape="12547.86,3707.24 12547.80,3726.02 12554.62,3756.06 12582.04,3831.30"/>
    </edge>
    <edge id="-1070136556#3" from="5765066758" to="5765088626" priority="4" type="highway.unclassified" shape="12501.32,3593.18 12507.68,3606.78 12511.25,3628.64 12516.15,3642.97 12534.22,3665.85 12542.72,3681.41 12546.28,3700.93">
        <lane id="-1070136556#3_0" index="0" disallow="tram rail_urban rail rail_electric rail_fast ship" speed="13.89" length="119.03" shape="12507.17,3601.91 12509.22,3606.30 12512.81,3628.25 12517.58,3642.19 12535.56,3664.96 12544.24,3680.87 12546.47,3693.08"/>
    </edge>
    <edge id="-1079816601" from="3632311951" to="3632311948" priority="4" type="highway.unclassified" shape="9610.94,3373.35 9585.82,3359.59 9563.21,3353.29 9503.95,3350.65 9479.32,3350.47 9472.29,3349.85">
        <lane id="-1079816601_0" index="0" disallow="tram rail_urban rail rail_electric rail_fast ship" speed="13.89" length="143.12" shape="9603.46,3371.08 9585.22,3361.08 9562.96,3354.88 9503.91,3352.25 9480.23,3352.08"/>
    </edge>
    <edge id="-1096902152#0" from="5764885526" to="5764886838" priority="3" type="highway.residential" shape="9162.84,2921.68 9162.31,2911.53 9157.36,2847.65 9160.79,2820.97">
        <lane id="-1096902152#0_0" index="0" disallow="tram rail_urban rail rail_electric rail_fast ship" speed="13.89" length="101.13" shape="9160.87,2914.56 9160.71,2911.63 9155.75,2847.60 9158.14,2829.03"/>
    </edge>
    <edge id="-1096902152#1" from="5764886835" to="5764885526" priority="3" type="highway.residential">
        <lane id="-1096902152#1_0" index="0" disallow="tram rail_urban rail rail_electric rail_fast ship" speed="13.89" length="139.34" shape="9168.08,3053.49 9161.61,2928.94"/>
    </edge>
    <edge id="-1096902152#2" from="5764886831" to="5764886835" priority="3" type="highway.residential" shape="9202.75,3618.14 9201.61,3610.26 9187.94,3412.82 9181.04,3269.06 9170.07,3060.83">
        <lane id="-1096902152#2_0" index="0" disallow="tram rail_urban rail rail_electric rail_fast ship" speed="13.89" length="558.32" shape="9200.01,3610.35 9186.34,3412.91 9179.45,3269.14 9168.84,3067.89"/>
    </edge>
    <edge id="-1107017579#0" from="cluster_10129636271_10129636272_8366610660" to="10129636264" priority="1" type="highway.service" shape="8007.97,4465.45 8002.95,4504.36 7999.04,4522.42 7994.57,4536.97 7959.83,4615.81 7958.05,4618.72 7954.24,4620.44 7940.44,4620.08">
        <lane id="-1107017579#0_0" index="0" allow="pedestrian delivery bicycle" speed="5.56" length="186.08" shape="8008.88,4470.91 8004.52,4504.63 8000.59,4522.82 7996.07,4537.53 7961.25,4616.55 7959.16,4619.97 7954.56,4622.05 7940.40,4621.68"/>
    </edge>
    <edge id="-1107017584" from="3632310827" to="5764805196" priority="3" type="highway.residential" shape="8085.85,3935.77 8091.07,3897.66 8092.92,3884.19 8104.83,3797.44 8116.93,3709.48 8132.12,3588.91">
        <lane id="-1107017584_0" index="0" disallow="tram rail_urban rail rail_electric rail_fast ship" speed="13.89" length="349.94" shape="8085.32,3927.83 8089.49,3897.44 8091.34,3883.97 8103.24,3797.22 8115.35,3709.27 8129.75,3594.92"/>
    </edge>
    <edge id="-1136868491" from="10597785422" to="3632310770" priority="3" type="highway.residential">
        <lane id="-1136868491_0" index="0" disallow="tram rail_urban rail rail_electric rail_fast ship" speed="11.11" length="19.21" shape="9413.88,4311.50 9413.68,4311.47"/>
    </edge>
    <edge id="-1145551334#0" from="7969359830" to="cluster_2228512346_7969359822" priority="10" type="highway.tertiary" shape="11084.12,4677.46 11125.66,4689.67">
        <lane id="-1145551334#0_0" index="0" disallow="tram rail_urban rail rail_electric rail_fast ship" speed="22.22" length="34.89" shape="11107.39,4682.63 11120.50,4686.48"/>
    </edge>
    <edge id="-1145551334#1" from="3632312809" to="7969359830" priority="10" type="highway.tertiary">
        <lane id="-1145551334#1_0" index="0" disallow="tram rail_urban rail rail_electric rail_fast ship" speed="22.22" length="229.14" shape="10882.93,4634.78 11088.98,4676.82"/>
    </edge>
    <edge id="-1145551334#2" from="6659877633" to="3632312809" priority="10" type="highway.tertiary">
        <lane id="-1145551334#2_0" index="0" disallow="tram rail_urban rail rail_electric rail_fast ship" speed="22.22" length="390.58" shape="10500.10,4558.35 10868.79,4631.92"/>
    </edge>
    <edge id="-1145551334#3" from="5755569451" to="6659877633" priority="10" type="highway.tertiary">
        <lane id="-1145551334#3_0" index="0" disallow="tram rail_urban rail rail_electric rail_fast ship" speed="22.22" length="101.55" shape="10401.09,4538.60 10485.96,4555.53"/>
    </edge>
    <edge id="-1145551334#4" from="cluster_2228512348_5755569438" to="5755569451" priority="10" type="highway.tertiary" shape="10306.45,4521.41 10392.93,4538.60">
        <lane id="-1145551334#4_0" index="0" disallow="tram rail_urban rail rail_electric rail_fast ship" speed="22.22" length="91.83" shape="10310.87,4520.66 10386.80,4535.75"/>
    </edge>
    <edge id="-1145551334#7" from="2228512353" to="cluster_2228512348_5755569438" priority="10" type="highway.tertiary" shape="10146.26,4494.07 10164.51,4496.66 10167.68,4497.11 10299.23,4520.15">
        <lane id="-1145551334#7_0" index="0" disallow="tram rail_urban rail rail_electric rail_fast ship" speed="22.22" length="158.85" shape="10156.67,4493.93 10164.73,4495.08 10167.93,4495.53 10294.89,4517.76"/>
    </edge>
    <edge id="-1145551334#8" from="2228506654" to="2228512353" priority="10" type="highway.tertiary" shape="10112.96,4487.28 10132.80,4491.67 10146.26,4494.07">
        <lane id="-1145551334#8_0" index="0" disallow="tram rail_urban rail rail_electric rail_fast ship" speed="22.22" length="33.99" shape="10121.10,4487.44 10128.97,4489.18"/>
    </edge>
    <edge id="-1150872789#1" from="10705896798" to="7782287254" priority="1" type="highway.service" shape="8203.90,5441.51 8200.65,5480.08 8201.18,5491.28 8206.33,5493.87 8218.40,5498.83 8228.95,5501.22 8236.68,5504.29 8237.37,5506.63 8226.34,5530.24 8222.43,5539.08 8223.67,5548.19 8228.32,5558.46">
        <lane id="-1150872789#1_0" index="0" allow="pedestrian delivery bicycle" speed="5.56" length="146.50" shape="8205.49,5441.64 8202.25,5480.11 8202.74,5490.27 8207.00,5492.41 8218.88,5497.30 8229.43,5499.69 8238.00,5503.09 8239.08,5506.75 8227.80,5530.90 8224.07,5539.31 8225.23,5547.74 8229.78,5557.80"/>
    </edge>
    <edge id="-148350390#0" from="6506520855" to="4690647248" priority="3" type="highway.residential">
        <lane id="-148350390#0_0" index="0" disallow="tram rail_urban rail rail_electric rail_fast ship" speed="13.89" length="159.65" shape="5788.59,4223.43 5931.72,4242.19"/>
    </edge>
    <edge id="-148350390#1" from="6506520861" to="6506520855" priority="3" type="highway.residential">
        <lane id="-148350390#1_0" index="0" disallow="tram rail_urban rail rail_electric rail_fast ship" speed="13.89" length="191.82" shape="5598.51,4198.53 5774.19,4221.55"/>
    </edge>
    <edge id="-148350390#2" from="7774041206" to="6506520861" priority="3" type="highway.residential">
        <lane id="-148350390#2_0" index="0" disallow="tram rail_urban rail rail_electric rail_fast ship" speed="13.89" length="368.90" shape="5231.99,4151.75 5584.05,4196.66"/>
    </edge>
    <edge id="-148350390#3" from="6506520870" to="7774041206" priority="3" type="highway.residential">
        <lane id="-148350390#3_0" index="0" disallow="tram rail_urban rail rail_electric rail_fast ship" speed="13.89" length="203.23" shape="5030.79,4124.22 5217.74,4149.87"/>
    </edge>
    <edge id="-148350390#4" from="7774041194" to="6506520870" priority="3" type="highway.residential">
        <lane id="-148350390#4_0" index="0" disallow="tram rail_urban rail rail_electric rail_fast ship" speed="13.89" length="126.72" shape="4905.10,4107.67 5016.45,4122.30"/>
    </edge>
    <edge id="-148350390#5" from="5303276209" to="7774041194" priority="3" type="highway.residential">
        <lane id="-148350390#5_0" index="0" disallow="tram rail_urban rail rail_electric rail_fast ship" speed="13.89" length="215.82" shape="4689.40,4079.34 4890.79,4105.79"/>
    </edge>
    <edge id="-148350390#6" from="1614573719" to="5303276209" priority="3" type="highway.residential" shape="3219.87,2245.63 3195.43,2439.55 3181.59,2494.15 3176.34,2550.89 3163.20,2693.19 3171.41,2706.37 3236.72,2761.88 3239.36,2797.06 3244.22,2908.86 3242.24,2960.95 3221.01,3091.83 3208.30,3291.76 3195.15,3341.26 3188.61,3396.60 3184.13,3434.50 3158.99,3536.41 3197.56,3689.36 3209.83,3699.75 3257.16,3739.80 3275.76,3750.04 3662.39,3962.76 3775.35,4024.96 3897.46,4092.20 3935.46,4097.80 4200.75,4083.62 4256.11,4076.46 4476.03,4079.39 4520.25,4079.99 4602.11,4080.16 4652.24,4076.08 4683.45,4080.18">
        <lane id="-148350390#6_0" index="0" disallow="tram rail_urban rail rail_electric rail_fast ship" speed="13.89" length="3089.60" shape="3220.34,2254.70 3197.01,2439.85 3183.17,2494.42 3177.94,2551.04 3164.84,2692.80 3172.64,2705.31 3238.26,2761.09 3240.96,2796.96 3245.82,2908.85 3243.84,2961.10 3222.61,3092.01 3209.88,3292.02 3196.72,3341.56 3190.20,3396.78 3185.71,3434.79 3160.64,3536.41 3198.98,3688.47 3210.87,3698.53 3258.07,3738.48 3276.53,3748.63 3663.17,3961.36 3776.12,4023.55 3897.98,4090.66 3935.53,4096.20 4200.60,4082.03 4256.01,4074.86 4476.05,4077.79 4520.26,4078.39 4602.05,4078.56 4652.28,4074.47 4674.03,4077.33"/>
    </edge>
    <edge id="-148351286#0" from="7774109020" to="3632311804" priority="10" type="highway.tertiary" shape="6212.16,3432.52 6208.40,3455.94 6205.73,3474.22 6197.32,3512.67 6176.06,3586.97 6170.42,3610.77 6166.15,3632.40 6162.47,3662.70 6138.67,3949.52">
        <lane id="-148351286#0_0" index="0" disallow="tram rail_urban rail rail_electric rail_fast ship" speed="22.22" length="523.67" shape="6212.55,3440.20 6209.98,3456.18 6207.30,3474.50 6198.87,3513.06 6177.60,3587.37 6171.99,3611.11 6167.73,3632.65 6164.07,3662.86 6140.87,3942.40"/>
    </edge>
    <edge id="-148351286#1" from="7774109025" to="7774109020" priority="10" type="highway.tertiary">
        <lane id="-148351286#1_0" index="0" disallow="tram rail_urban rail rail_electric rail_fast ship" speed="22.22" length="53.55" shape="6219.50,3386.81 6214.66,3425.41"/>
    </edge>
    <edge id="-148351286#10" from="1614594606" to="1614594554" priority="10" type="highway.tertiary" shape="6972.66,408.71 6955.84,434.99 6951.67,442.11 6945.60,461.24 6906.16,627.00 6877.08,746.96 6868.30,784.30 6861.30,814.04 6853.82,845.84 6849.80,862.92 6840.45,902.66 6837.27,915.66 6790.82,1113.66 6764.02,1226.38 6753.17,1272.04 6744.73,1306.32 6739.34,1331.60 6731.91,1363.62 6726.05,1388.86 6717.37,1426.46 6715.32,1435.33 6705.07,1479.14 6674.42,1611.11 6670.40,1628.44 6650.28,1692.61 6628.53,1745.58 6606.75,1787.87 6589.29,1822.32 6585.33,1829.11 6577.88,1844.81 6569.13,1863.22 6556.72,1888.71 6549.57,1903.39 6536.22,1931.35 6510.69,1980.97 6500.03,2003.67 6493.60,2020.56 6483.07,2071.05 6472.18,2121.08 6468.45,2136.84 6459.52,2176.85 6450.47,2215.13 6445.39,2232.85 6432.28,2291.38 6421.51,2344.06 6416.55,2386.35 6414.79,2417.60 6410.66,2508.77 6409.56,2520.83 6401.34,2611.35 6394.87,2647.82 6382.06,2712.70">
        <lane id="-148351286#10_0" index="0" disallow="tram rail_urban rail rail_electric rail_fast ship" speed="22.22" length="2392.49" shape="6974.00,409.57 6957.20,435.82 6953.14,442.76 6947.14,461.67 6907.72,627.37 6878.64,747.33 6869.85,784.67 6862.86,814.41 6855.38,846.21 6851.35,863.29 6842.01,903.03 6838.82,916.04 6792.38,1114.03 6765.58,1226.75 6754.73,1272.42 6746.29,1306.68 6740.90,1331.95 6733.46,1363.98 6727.61,1389.22 6718.93,1426.82 6716.88,1435.70 6706.63,1479.50 6675.98,1611.47 6671.94,1628.86 6651.78,1693.15 6629.98,1746.25 6608.18,1788.59 6590.70,1823.09 6586.75,1829.85 6579.32,1845.49 6570.57,1863.92 6558.16,1889.41 6551.01,1904.08 6537.66,1932.06 6512.13,1981.68 6501.51,2004.30 6495.14,2021.02 6484.63,2071.38 6473.74,2121.43 6470.01,2137.20 6461.08,2177.21 6452.02,2215.54 6446.94,2233.24 6433.84,2291.72 6423.09,2344.31 6418.15,2386.49 6416.39,2417.68 6412.26,2508.88 6411.15,2520.97 6402.93,2611.56 6396.44,2648.11 6384.84,2706.89"/>
    </edge>
    <edge id="-148351286#2" from="8347729336" to="7774109025" priority="10" type="highway.tertiary" shape="6255.15,3211.78 6236.96,3271.17 6229.46,3304.08 6226.05,3327.46 6218.82,3379.38">
        <lane id="-148351286#2_0" index="0" disallow="tram rail_urban rail rail_electric rail_fast ship" speed="22.22" length="171.92" shape="6255.41,3216.39 6238.50,3271.59 6231.04,3304.37 6227.64,3327.69 6221.46,3372.03"/>
    </edge>
    <edge id="-148351286#3" from="3632310799" to="8347729336" priority="10" type="highway.tertiary">
        <lane id="-148351286#3_0" index="0" disallow="tram rail_urban rail rail_electric rail_fast ship" speed="22.22" length="45.89" shape="6267.22,3175.64 6258.12,3207.25"/>
    </edge>
    <edge id="-148351286#4" from="8347648104" to="3632310799" priority="10" type="highway.tertiary">
        <lane id="-148351286#4_0" index="0" disallow="tram rail_urban rail rail_electric rail_fast ship" speed="22.22" length="238.75" shape="6328.41,2941.83 6271.06,3161.69"/>
    </edge>
    <edge id="-148351286#5" from="4883203989" to="8347648104" priority="10" type="highway.tertiary">